version 2
run Default-0-20221108-21:07:11-50965
attr configname Default
attr datetime 20221108-21:07:11
attr experiment Default
attr inifile omnetpp.ini
attr iterationvars ""
attr iterationvarsf ""
attr measurement ""
attr network circlesNetwork
attr processid 50965
attr repetition 0
attr replication #0
attr resultdir results
attr runnumber 0
attr seedset 0
param *.playgroundSizeX 2500m
param *.playgroundSizeY 2500m
param *.playgroundSizeZ 50m
param *.annotations.draw true
param *.obstacles.debug false
param *.manager.updateInterval 1s
param *.manager.host "\"localhost\""
param *.manager.port 9999
param *.manager.autoShutdown true
param *.manager.launchConfig "xmldoc(\"circles.launchd.xml\")"
param *.rsu[0].mobility.x 2000
param *.rsu[0].mobility.y 2000
param *.rsu[0].mobility.z 3
param *.rsu[*].applType "\"TraCIDemoRSU11p\""
param *.rsu[*].appl.headerLength "80 bit"
param *.rsu[*].appl.sendBeacons false
param *.rsu[*].appl.dataOnSch false
param *.rsu[*].appl.beaconInterval 1s
param *.rsu[*].appl.beaconUserPriority 7
param *.rsu[*].appl.dataUserPriority 5
param *.rsu[*].nic.phy80211p.antennaOffsetZ "0 m"
param *.connectionManager.sendDirect true
param *.connectionManager.maxInterfDist 2600m
param *.connectionManager.drawMaxIntfDist false
param *.**.nic.mac1609_4.useServiceChannel false
param *.**.nic.mac1609_4.txPower 20mW
param *.**.nic.mac1609_4.bitrate 6Mbps
param *.**.nic.phy80211p.minPowerLevel -110dBm
param *.**.nic.phy80211p.useNoiseFloor true
param *.**.nic.phy80211p.noiseFloor -98dBm
param *.**.nic.phy80211p.decider "xmldoc(\"config.xml\")"
param *.**.nic.phy80211p.analogueModels "xmldoc(\"config.xml\")"
param *.**.nic.phy80211p.usePropagationDelay true
param *.**.nic.phy80211p.antenna "xmldoc(\"antenna.xml\", \"/root/Antenna[@id='monopole']\")"
param *.node[*].nic.phy80211p.antennaOffsetY "0 m"
param *.node[*].nic.phy80211p.antennaOffsetZ "1.895 m"
param *.node[*].applType "\"MyVeinsApp\""
param *.node[*].appl.headerLength "80 bit"
param *.node[*].appl.sendBeacons false
param *.node[*].appl.dataOnSch false
param *.node[*].appl.beaconInterval 1s
param *.node[*].veinsmobility.x 0
param *.node[*].veinsmobility.y 0
param *.node[*].veinsmobility.z 0
param *.node[*].veinsmobility.setHostSpeed false
param *.node[*0].veinsmobility.accidentCount 0
param *.node[*0].veinsmobility.accidentStart 73s
param *.node[*0].veinsmobility.accidentDuration 50s

vector 0 circlesNetwork.node[0].veinsmobility posx ETV
vector 1 circlesNetwork.node[0].veinsmobility posy ETV
vector 2 circlesNetwork.node[0].veinsmobility speed ETV
vector 3 circlesNetwork.node[0].veinsmobility acceleration ETV
vector 4 circlesNetwork.node[0].veinsmobility co2emission ETV
vector 5 circlesNetwork.node[1].veinsmobility posx ETV
vector 6 circlesNetwork.node[1].veinsmobility posy ETV
vector 7 circlesNetwork.node[1].veinsmobility speed ETV
vector 8 circlesNetwork.node[1].veinsmobility acceleration ETV
vector 9 circlesNetwork.node[1].veinsmobility co2emission ETV
vector 10 circlesNetwork.node[2].veinsmobility posx ETV
vector 11 circlesNetwork.node[2].veinsmobility posy ETV
vector 12 circlesNetwork.node[2].veinsmobility speed ETV
vector 13 circlesNetwork.node[2].veinsmobility acceleration ETV
vector 14 circlesNetwork.node[2].veinsmobility co2emission ETV
vector 15 circlesNetwork.node[3].veinsmobility posx ETV
vector 16 circlesNetwork.node[3].veinsmobility posy ETV
vector 17 circlesNetwork.node[3].veinsmobility speed ETV
vector 18 circlesNetwork.node[3].veinsmobility acceleration ETV
vector 19 circlesNetwork.node[3].veinsmobility co2emission ETV
vector 20 circlesNetwork.node[4].veinsmobility posx ETV
vector 21 circlesNetwork.node[4].veinsmobility posy ETV
vector 22 circlesNetwork.node[4].veinsmobility speed ETV
vector 23 circlesNetwork.node[4].veinsmobility acceleration ETV
vector 24 circlesNetwork.node[4].veinsmobility co2emission ETV
0	2	1	139.74095531587
0	3	2	139.29977845209
0	4	3	135.41172338283
0	5	4	131.41401306087
0	6	5	124.7652789341
0	7	6	115.94680621373
0	8	7	106.48858747726
0	9	8	95.016903801681
0	10	9	82.483898067778
0	11	10	70.683481026378
0	12	11	57.358969090203
0	13	12	43.137824170703
0	14	13	36.284558788061
0	15	14	30.312351877196
0	16	15	24.182807426727
0	17	16	29.782621816972
0	18	17	37.424472077618
0	19	18	44.544367583164
0	20	19	53.963511217705
0	21	20	66.623040554168
0	22	21	79.873048642423
0	23	22	94.404799663843
0	24	23	106.78104378954
0	25	24	118.16222802553
0	26	25	131.99693988139
0	27	26	144.72329398734
0	28	27	154.65001537284
0	29	28	160.61391829326
0	30	29	165.95656276446
0	31	30	171.52570250596
0	32	31	169.27586662054
0	33	32	161.72092162282
0	34	33	154.09164238119
0	35	34	144.77885217596
0	36	35	132.15157055204
0	37	36	119.06785675123
0	38	37	104.07170794956
0	39	38	89.677742721442
0	40	39	76.160357017174
0	41	40	62.35728053211
0	42	41	50.279623344695
0	43	42	39.662266913143
0	44	43	34.632326290362
0	45	44	29.657068916568
0	46	45	24.457329176577
0	47	46	28.192698513502
0	48	47	35.86484735152
0	49	48	43.11589736526
0	50	49	52.774392568614
0	51	50	66.494912636517
0	52	51	80.557663697806
0	53	52	94.190101046257
0	54	53	107.18879809504
0	55	54	119.71372019913
0	56	55	132.49943009207
0	57	56	144.81825436728
0	58	57	155.20652882779
0	59	58	161.61616062955
0	60	59	167.32500971322
0	61	60	172.84341276234
0	62	61	167.18866902126
0	63	62	159.68353387273
0	64	63	152.27375072777
0	65	64	141.2648262809
0	66	65	128.12395040418
0	67	66	115.95445797545
0	68	67	101.49587887681
0	69	68	87.16839058819
0	70	69	73.272327849508
0	71	70	59.408231649096
0	72	71	46.869967279748
0	73	72	37.796993303015
0	74	73	32.664901270779
0	75	74	26.661276297238
0	76	75	26.419616501573
0	77	76	33.521945738706
0	78	77	39.800830876567
0	79	78	45.815728867672
0	80	79	57.90699026336
0	81	80	72.733990073441
0	82	81	85.382334564373
0	83	82	95.852023736156
0	84	83	108.49621519268
0	85	84	118.01970400955
0	86	85	125.80646468583
0	87	86	133.77068528965
0	88	87	143.65534646803
0	89	88	152.96765015907
0	90	89	157.61501354005
0	91	90	161.30513898425
0	92	91	165.19247802008
0	93	92	170.37148920413
0	94	93	170.66734557172
0	95	94	163.80574772423
0	96	95	156.41639865322
0	97	96	150.35304386917
0	98	97	144.59757990935
0	99	98	133.87730716971
0	100	99	122.59896572209
0	101	100	113.51158472645
0	102	101	102.92516312079
0	103	102	91.321678100546
0	104	103	79.794240453134
0	105	104	67.015905564201
0	106	105	56.264833985812
0	107	106	47.541025717969
0	108	107	39.658794289622
0	109	108	35.733164452223
0	110	109	31.116337517278
0	111	110	27.310508047341
0	112	111	23.414531655904
0	113	112	28.209353047289
0	114	113	33.484963401468
0	115	114	40.287945096386
0	116	115	45.967571735598
0	117	116	55.259461302873
0	118	117	65.626173545342
0	119	118	75.799501337821
0	120	119	86.032063947998
0	121	120	96.107853643775
0	122	121	108.17501957735
0	123	122	119.92643523562
0	124	123	129.71030542075
0	125	124	138.29154554929
0	126	125	145.61100313669
0	127	126	152.70503072099
0	128	127	157.34286122493
0	129	128	161.19865441559
0	130	129	165.0806236627
0	131	130	170.35854079223
0	132	131	172.35269793063
0	133	132	165.02430524985
0	134	133	158.54115569824
0	135	134	150.87791871194
0	136	135	143.43472828219
0	137	136	132.2416262033
0	138	137	122.70799670455
0	139	138	113.30610144836
0	140	139	102.43463551143
0	141	140	90.925446670799
0	142	141	80.639359878647
0	143	142	71.207126544747
0	144	143	58.943027082912
0	145	144	48.706190931621
0	146	145	40.666839386363
0	147	146	36.879577818865
0	148	147	32.913384631727
0	149	148	28.864780001449
0	150	149	24.65551103044
0	151	150	25.979712516237
0	152	151	31.5853767332
0	153	152	37.247657658167
0	154	153	41.911882825118
0	155	154	46.421611420508
0	156	155	56.095634472281
0	157	156	67.879901515581
0	158	157	78.428041674232
0	159	158	90.082987463129
0	160	159	101.57694777067
0	161	160	111.94183841803
0	162	161	122.70493108806
0	163	162	131.6946304711
0	164	163	141.35641445063
0	165	164	149.8395089916
0	166	165	155.48133680721
0	167	166	160.47267283066
0	168	167	164.78978669175
0	169	168	169.42173908885
0	170	169	173.28067517681
0	171	170	165.83850685057
0	172	171	159.7223328113
0	173	172	152.3668682054
0	174	173	146.33739788646
0	175	174	138.10432130221
0	176	175	127.7847359997
0	177	176	118.38580464829
0	178	177	108.01412234131
0	179	178	97.159478212319
0	180	179	87.254344685972
0	181	180	79.746941334254
0	182	181	69.633735900079
0	183	182	59.287469225464
0	184	183	49.819304653064
0	185	184	39.455632808071
0	186	185	35.068289284879
0	187	186	30.834225683972
0	188	187	27.475302037636
0	189	188	24.099876065441
0	190	189	27.246086935273
0	191	190	33.802162063218
0	192	191	39.751319644264
0	193	192	44.875930701735
0	194	193	53.016226159812
0	195	194	64.301144225979
0	196	195	76.842528894903
0	197	196	88.426450235905
0	198	197	102.49694117322
0	199	198	113.74573836477
0	200	199	124.72528605802
0	201	200	134.37508047463
1	2	1	28.178983050847
1	3	2	28.138938116332
1	4	3	27.786025433408
1	5	4	27.42315951455
1	6	5	26.819664307582
1	7	6	26.019225319039
1	8	7	25.160717584321
1	9	8	24.119450783443
1	10	9	24.902348746594
1	11	10	29.879323200206
1	12	11	35.499103863934
1	13	12	41.497050776925
1	14	13	52.81241157009
1	15	14	66.435197357403
1	16	15	80.416874862688
1	17	16	93.938382301193
1	18	17	106.80274035627
1	19	18	118.78843517808
1	20	19	125.83504850053
1	21	20	127.61495482525
1	22	21	129.47788136636
1	23	22	131.52101858457
1	24	23	133.26109553452
1	25	24	128.14388598723
1	26	25	121.2265300593
1	27	26	114.86335300633
1	28	27	106.33926551193
1	29	28	93.998091638849
1	30	29	82.942495120769
1	31	30	71.418209298142
1	32	31	60.155726418451
1	33	32	50.152241098833
1	34	33	40.05032997757
1	35	34	28.636265076312
1	36	35	27.490106455471
1	37	36	26.302518199183
1	38	37	24.941341206355
1	39	38	23.634823475489
1	40	39	27.569381797613
1	41	40	33.391003084928
1	42	41	38.484907060556
1	43	42	45.107756502573
1	44	43	56.581204199502
1	45	44	67.929917740663
1	46	45	79.790682393477
1	47	46	91.261891404574
1	48	47	104.17725435174
1	49	48	116.38373582814
1	50	49	125.66786062584
1	51	50	127.59694027787
1	52	51	129.57413697229
1	53	52	131.49083235748
1	54	53	133.31842503296
1	55	54	127.36813990044
1	56	55	120.97528495396
1	57	56	114.81587281636
1	58	57	105.18766572874
1	59	58	91.924139882724
1	60	59	80.110751888857
1	61	60	68.691456095521
1	62	61	57.392072871024
1	63	62	47.454540658312
1	64	63	37.643263814527
1	65	64	28.317302437049
1	66	65	27.124525668456
1	67	66	26.019919857493
1	68	67	24.70753722657
1	69	68	23.407053503621
1	70	69	28.787444459155
1	71	70	34.634801579653
1	72	71	39.922972433272
1	73	72	49.362502395464
1	74	73	61.068960567356
1	75	74	74.763411912155
1	76	75	88.277069524468
1	77	76	100.23319313527
1	78	77	110.80312369464
1	79	78	120.92865596538
1	80	79	126.38949433404
1	81	80	128.47414298386
1	82	81	130.25247674006
1	83	82	131.72449560264
1	84	83	132.97689240366
1	85	84	128.21514799523
1	86	85	124.32176765709
1	87	86	120.33965735518
1	88	87	115.39732676599
1	89	88	109.82060347103
1	90	89	100.20376022234
1	91	90	92.56774060095
1	92	91	84.523624594193
1	93	92	73.806636345765
1	94	93	61.998180501812
1	95	94	52.912754551365
1	96	95	43.128534417965
1	97	96	35.100060274458
1	98	97	28.619811275939
1	99	98	27.646748871516
1	100	99	26.623031442542
1	101	100	25.798184070065
1	102	101	24.837271123909
1	103	102	23.784040920937
1	104	103	26.036745708165
1	105	104	31.42616932589
1	106	105	35.960569119293
1	107	106	39.639945088375
1	108	107	45.115677662549
1	109	108	54.070158837318
1	110	109	64.601281635061
1	111	110	73.282494524333
1	112	111	82.221860727629
1	113	112	91.289927793481
1	114	113	100.17093674294
1	115	114	111.62313606386
1	116	115	121.18426958701
1	117	116	126.01725667682
1	118	117	127.4747971743
1	119	118	128.90514817709
1	120	119	130.3438274853
1	121	120	131.76046481275
1	122	121	133.13749021132
1	123	122	127.26178238219
1	124	123	122.36984728962
1	125	124	118.07922722536
1	126	125	114.41949843166
1	127	126	110.3640449373
1	128	127	100.76692818226
1	129	128	92.788090360852
1	130	129	84.755086120545
1	131	130	73.833430645533
1	132	131	64.22975168941
1	133	132	54.526243772311
1	134	133	45.941920341235
1	135	134	35.795045848258
1	136	135	28.514261050884
1	137	136	27.49828066621
1	138	137	26.632928014441
1	139	138	25.779532674013
1	140	139	24.792746699335
1	141	140	23.748075613234
1	142	141	25.680305950463
1	143	142	29.658469110174
1	144	143	34.831007462333
1	145	144	39.148521990171
1	146	145	42.824953350002
1	147	146	51.455155045493
1	148	147	60.502162455967
1	149	148	69.737152877256
1	150	149	79.338623551175
1	151	150	87.536531279907
1	152	151	96.97315580982
1	153	152	106.50508940479
1	154	153	114.35688714364
1	155	154	121.94860399278
1	156	155	126.13482107225
1	157	156	127.7916671433
1	158	157	129.27471606901
1	159	158	130.91337981176
1	160	159	132.52940929467
1	161	160	131.25408079099
1	162	161	125.87253445597
1	163	162	121.37768476445
1	164	163	116.54679277469
1	165	164	112.3052455042
1	166	165	104.6190023717
1	167	166	94.290372522015
1	168	167	85.356918456696
1	169	168	75.77196533669
1	170	169	65.458484229744
1	171	170	55.604326241809
1	172	171	47.505914243767
1	173	172	37.766560452787
1	174	173	29.7829526517
1	175	174	28.030428338932
1	176	175	27.093735707038
1	177	176	26.240609395615
1	178	177	25.299188000037
1	179	178	24.313928914579
1	180	179	23.41485542276
1	181	180	26.056694707046
1	182	181	30.322066423438
1	183	182	34.68573465221
1	184	183	38.67905226413
1	185	184	45.579095187211
1	186	185	55.58675933613
1	187	186	65.244787315717
1	188	187	72.906594415321
1	189	188	80.606043822624
1	190	189	89.668357133936
1	191	190	100.70491176472
1	192	191	110.71977604998
1	193	192	119.34659145302
1	194	193	125.70186197984
1	195	194	127.28850051166
1	196	195	129.05179591544
1	197	196	130.68047375266
1	198	197	132.65875865928
1	199	198	130.35213081761
1	200	199	124.86235697099
1	201	200	120.03745976269
2	3	2	0.44299708807375
2	4	3	3.9040965548484
2	5	4	4.0142042273656
2	6	5	6.6761657270836
2	7	6	8.8548563107615
2	8	7	9.4972418153193
2	9	8	11.519013984711
2	10	9	12.876897319453
2	11	10	12.80589322366
2	12	11	14.459851419946
2	13	12	15.432883661516
2	14	13	13.77445072557
2	15	14	14.874571544976
2	16	15	15.266441506028
2	17	16	15.437352133725
2	18	17	14.96594552898
2	19	18	13.943739365946
2	20	19	12.915341554718
2	21	20	12.783557038797
2	22	21	13.379820817892
2	23	22	14.674121218777
2	24	23	12.497496431504
2	25	24	12.620540628719
2	26	25	15.469205921093
2	27	26	14.229901883096
2	28	27	13.748954390685
2	29	28	13.706713786508
2	30	29	12.278888440501
2	31	30	12.799437799767
2	32	31	13.198718354615
2	33	32	12.534653548893
2	34	33	12.657983896715
2	35	34	14.879379743055
2	36	35	12.679379743055
2	37	36	13.137695085184
2	38	37	15.058020483164
2	39	38	14.4533523977
2	40	39	14.378057691778
2	41	40	14.979192939164
2	42	41	13.106756124922
2	43	42	13.112150981251
2	44	43	12.52773267524
2	45	44	12.391536808034
2	46	45	12.950639844217
2	47	46	13.007348706989
2	48	47	15.025282841685
2	49	48	14.200594860172
2	50	49	14.512116256912
2	51	50	13.854942488644
2	52	51	14.200526381071
2	53	52	13.765996806832
2	54	53	13.126047638637
2	55	54	13.943583803411
2	56	55	14.296270225357
2	57	56	13.774224675187
2	58	57	14.921798246374
2	59	58	14.731123184945
2	60	59	13.120528869141
2	61	60	12.682830717109
2	62	61	13.633189365544
2	63	62	12.452012417416
2	64	63	12.293810824907
2	65	64	15.391781112804
2	66	65	13.195093002563
2	67	66	12.219701783775
2	68	67	14.518232854592
2	69	68	14.38660118512
2	70	69	14.992461369067
2	71	70	15.045411951301
2	72	71	13.60661018679
2	73	72	14.057679652396
2	74	73	12.78215427701
2	75	74	14.952822387262
2	76	75	15.024132951495
2	77	76	13.909337250326
2	78	77	12.296688596462
2	79	78	11.779691125436
2	80	79	14.407597353219
2	81	80	14.972262613308
2	82	81	12.772262613308
2	83	82	10.572262613308
2	84	83	12.848635918854
2	85	84	10.648635918854
2	86	85	8.7067230322339
2	87	86	8.9051488607132
2	88	87	11.052478781034
2	89	88	11.076529046541
2	90	89	10.680938401401
2	91	90	8.4809384014007
2	92	91	8.9341902888628
2	93	92	11.902813466954
2	94	93	13.542775006961
2	95	94	11.384298871279
2	96	95	12.259907992043
2	97	96	10.059907992043
2	98	97	8.858570223875
2	99	98	10.764502848932
2	100	99	11.324874058025
2	101	100	9.124874058025
2	102	101	10.630099466847
2	103	102	11.651359120382
2	104	103	12.08526054144
2	105	104	13.867136355414
2	106	105	11.667136355414
2	107	106	9.4671363554141
2	108	107	10.148855148064
2	109	108	9.7773005434984
2	110	109	11.4988183731
2	111	110	9.4789218765311
2	112	111	9.7525696629271
2	113	112	10.393615107163
2	114	113	10.33185609503
2	115	114	13.323089305363
2	116	115	11.123089305363
2	117	116	11.436758098748
2	118	117	10.468276800361
2	119	118	10.272997727882
2	120	119	10.33281287982
2	121	120	10.174504032776
2	122	121	12.231156512946
2	123	122	13.139779893938
2	124	123	10.939779893938
2	125	124	9.5950658018566
2	126	125	8.1842106890193
2	127	126	8.2862496657557
2	128	127	10.659029188778
2	129	128	8.8616891303619
2	130	129	8.9218490153372
2	131	130	12.130126940138
2	132	131	10.776311474492
2	133	132	12.158773273876
2	134	133	10.756403065757
2	135	134	12.714324288969
2	136	135	10.897056412979
2	137	136	11.239283005463
2	138	137	9.5729637101956
2	139	138	9.4406859534841
2	140	139	10.916319844868
2	141	140	11.556673889997
2	142	141	10.770264948417
2	143	142	10.235924078852
2	144	143	13.309084555369
2	145	144	11.109084555369
2	146	145	8.9090845553687
2	147	146	9.4262222080887
2	148	147	9.8783289333049
2	149	148	10.083585537003
2	150	149	10.483741336461
2	151	150	9.1669927865272
2	152	151	10.978239884763
2	153	152	11.089119127242
2	154	153	9.1345076653703
2	155	154	8.8319386283532
2	156	155	11.391923415953
2	157	156	11.899719642383
2	158	157	10.651482198707
2	159	158	11.769131404223
2	160	159	11.606568718944
2	161	160	10.920328163509
2	162	161	12.034692055409
2	163	162	10.051782239763
2	164	163	10.803269883877
2	165	164	9.485324860367
2	166	165	9.9388958378025
2	167	166	11.471483556777
2	168	167	9.9219328126713
2	169	168	10.645519658347
2	170	169	11.389706248178
2	171	170	12.347542126402
2	172	171	10.147542126402
2	173	172	12.203689180272
2	174	173	10.003689180272
2	175	174	8.7161308612123
2	176	175	10.36216224033
2	177	176	9.4377098201136
2	178	177	10.414474188589
2	179	178	10.899428632879
2	180	179	9.9460005032483
2	181	180	8.0524752949345
2	182	181	10.974919656196
2	183	182	11.227839307187
2	184	183	10.274916904445
2	185	184	13.127259571227
2	186	185	10.927259571227
2	187	186	10.545495643009
2	188	187	8.3658437889411
2	189	188	8.4069450150585
2	190	189	10.263202238583
2	191	190	12.839542768068
2	192	191	11.65094385057
2	193	192	10.036136187891
2	194	193	11.309436228405
2	195	194	11.395478452858
2	196	195	12.664254886547
2	197	196	11.697411116945
2	198	197	14.208342086069
2	199	198	12.008342086069
2	200	199	12.276720032689
2	201	200	10.789863820948
3	4	3	3.4610994667746
3	5	4	0.11010767251719
3	6	5	2.661961499718
3	7	6	2.178690583678
3	8	7	0.64238550455775
3	9	8	2.0217721693916
3	10	9	1.3578833347419
3	11	10	-0.071004095793326
3	12	11	1.6539581962861
3	13	12	0.97303224157076
3	14	13	-1.6584329359466
3	15	14	1.1001208194066
3	16	15	0.39186996105127
3	17	16	0.17091062769759
3	18	17	-0.47140660474543
3	19	18	-1.0222061630338
3	20	19	-1.0283978112275
3	21	20	-0.13178451592103
3	22	21	0.59626377909444
3	23	22	1.2943004008848
3	24	23	-2.1766247872729
3	25	24	0.12304419721477
3	26	25	2.8486652923748
3	27	26	-1.2393040379975
3	28	27	-0.48094749241136
3	29	28	-0.042240604176186
3	30	29	-1.427825346007
3	31	30	0.52054935926571
3	32	31	0.39928055484779
3	33	32	-0.66406480572186
3	34	33	0.12333034782205
3	35	34	2.2213958463399
3	36	35	-2.2
3	37	36	0.45831534212921
3	38	37	1.9203253979795
3	39	38	-0.60466808546335
3	40	39	-0.075294705922715
3	41	40	0.60113524738699
3	42	41	-1.872436814243
3	43	42	0.005394856329076
3	44	43	-0.58441830601078
3	45	44	-0.13619586720597
3	46	45	0.55910303618293
3	47	46	0.056708862772211
3	48	47	2.0179341346957
3	49	48	-0.8246879815124
3	50	49	0.31152139673941
3	51	50	-0.65717376826797
3	52	51	0.34558389242738
3	53	52	-0.4345295742387
3	54	53	-0.63994916819502
3	55	54	0.81753616477363
3	56	55	0.35268642194569
3	57	56	-0.52204555016942
3	58	57	1.1475735711865
3	59	58	-0.19067506142892
3	60	59	-1.6105943158036
3	61	60	-0.43769815203268
3	62	61	0.95035864843521
3	63	62	-1.1811769481283
3	64	63	-0.1582015925087
3	65	64	3.0979702878976
3	66	65	-2.1966881102417
3	67	66	-0.97539121878799
3	68	67	2.2985310708173
3	69	68	-0.13163166947197
3	70	69	0.60586018394679
3	71	70	0.052950582234189
3	72	71	-1.4388017645106
3	73	72	0.45106946560554
3	74	73	-1.2755253753858
3	75	74	2.1706681102514
3	76	75	0.071310564233782
3	77	76	-1.1147957011693
3	78	77	-1.6126486538646
3	79	78	-0.51699747102592
3	80	79	2.6279062277828
3	81	80	0.5646652600892
3	82	81	-2.2
3	83	82	-2.2
3	84	83	2.2763733055464
3	85	84	-2.2
3	86	85	-1.9419128866202
3	87	86	0.19842582847923
3	88	87	2.1473299203208
3	89	88	0.024050265507567
3	90	89	-0.39559064514082
3	91	90	-2.2
3	92	91	0.4532518874621
3	93	92	2.9686231780908
3	94	93	1.639961540007
3	95	94	-2.1584761356819
3	96	95	0.87560912076447
3	97	96	-2.2
3	98	97	-1.2013377681682
3	99	98	1.9059326250572
3	100	99	0.56037120909287
3	101	100	-2.2
3	102	101	1.5052254088223
3	103	102	1.0212596535348
3	104	103	0.4339014210583
3	105	104	1.7818758139736
3	106	105	-2.2
3	107	106	-2.2
3	108	107	0.68171879264992
3	109	108	-0.37155460456558
3	110	109	1.7215178296014
3	111	110	-2.0198964965687
3	112	111	0.27364778639599
3	113	112	0.64104544423629
3	114	113	-0.061759012133322
3	115	114	2.9912332103334
3	116	115	-2.2
3	117	116	0.31366879338469
3	118	117	-0.96848129838698
3	119	118	-0.19527907247933
3	120	119	0.059815151937784
3	121	120	-0.15830884704333
3	122	121	2.0566524801701
3	123	122	0.90862338099154
3	124	123	-2.2
3	125	124	-1.3447140920813
3	126	125	-1.4108551128373
3	127	126	0.10203897673637
3	128	127	2.3727795230225
3	129	128	-1.7973400584162
3	130	129	0.060159884975292
3	131	130	3.2082779248012
3	132	131	-1.3538154656462
3	133	132	1.3824617993834
3	134	133	-1.4023702081185
3	135	134	1.9579212232121
3	136	135	-1.8172678759904
3	137	136	0.34222659248393
3	138	137	-1.6663192952673
3	139	138	-0.13227775671144
3	140	139	1.475633891384
3	141	140	0.64035404512906
3	142	141	-0.78640894157967
3	143	142	-0.53434086956576
3	144	143	3.0731604765169
3	145	144	-2.2
3	146	145	-2.2
3	147	146	0.51713765272006
3	148	147	0.4521067252162
3	149	148	0.20525660369802
3	150	149	0.40015579945777
3	151	150	-1.3167485499336
3	152	151	1.8112470982363
3	153	152	0.11087924247839
3	154	153	-1.9546114618716
3	155	154	-0.30256903701715
3	156	155	2.5599847876001
3	157	156	0.50779622642987
3	158	157	-1.2482374436766
3	159	158	1.1176492055166
3	160	159	-0.16256268527903
3	161	160	-0.68624055543527
3	162	161	1.1143638919003
3	163	162	-1.9829098156459
3	164	163	0.75148764411393
3	165	164	-1.3179450235102
3	166	165	0.45357097743545
3	167	166	1.5325877189744
3	168	167	-1.5495507441056
3	169	168	0.72358684567608
3	170	169	0.74418658983095
3	171	170	0.95783587822342
3	172	171	-2.2
3	173	172	2.0561470538706
3	174	173	-2.2
3	175	174	-1.2875583190601
3	176	175	1.6460313791176
3	177	176	-0.92445242021634
3	178	177	0.97676436847541
3	179	178	0.48495444428995
3	180	179	-0.95342812963061
3	181	180	-1.8935252083139
3	182	181	2.922444361262
3	183	182	0.25291965099085
3	184	183	-0.95292240274183
3	185	184	2.8523426667814
3	186	185	-2.2
3	187	186	-0.38176392821749
3	188	187	-2.1796518540684
3	189	188	0.041101226117462
3	190	189	1.8562572235242
3	191	190	2.5763405294856
3	192	191	-1.1885989174987
3	193	192	-1.6148076626783
3	194	193	1.2733000405133
3	195	194	0.086042224453442
3	196	195	1.2687764336888
3	197	196	-0.96684376960232
3	198	197	2.5109309691242
3	199	198	-2.2
3	200	199	0.26837794662024
3	201	200	-1.4868562117413
4	4	3	4.5603351542466
4	5	4	1.4161413873234
4	6	5	5.7425256907668
4	7	6	6.2506666267111
4	8	7	3.1175959254579
4	9	8	7.4194780804971
4	10	9	6.142389852526
4	11	10	1.7026222739162
4	12	11	7.8505924256988
4	13	12	5.8130633917664
4	14	13	0.973
4	15	14	6.0752541109169
4	16	15	3.6169156984043
4	17	16	2.8304070980242
4	18	17	0.973
4	19	18	0.973
4	20	19	0.973
4	21	20	1.5136590478495
4	22	21	3.8993875990891
4	23	22	6.6870219381016
4	24	23	0.973
4	25	24	2.2787577133569
4	26	25	12.8182438243
4	27	26	0.973
4	28	27	0.973
4	29	28	1.8695658282093
4	30	29	0.973
4	31	30	3.5268720403271
4	32	31	3.229180731536
4	33	32	0.973
4	34	33	2.284204950951
4	35	34	10.09787011088
4	36	35	0.973
4	37	36	3.4043473990308
4	38	37	9.1206376524245
4	39	38	0.973
4	40	39	1.8172757395238
4	41	40	4.3131688721287
4	42	41	0.973
4	43	42	1.9678326209948
4	44	43	0.973
4	45	44	1.4768091929042
4	46	45	3.6804110312608
4	47	46	2.1185445809402
4	48	47	9.4553050557134
4	49	48	0.973
4	50	49	3.181920800129
4	51	50	0.973
4	52	51	3.2422711840998
4	53	52	0.973
4	54	53	0.973
4	55	54	4.7803255529217
4	56	55	3.284721920483
4	57	56	0.973
4	58	57	6.263605891002
4	59	58	1.4390060915381
4	60	59	0.973
4	61	60	0.973
4	62	61	5.1242425582292
4	63	62	0.973
4	64	63	1.4059778657189
4	65	64	13.681022290823
4	66	65	0.973
4	67	66	0.973
4	68	67	10.135368687601
4	69	68	1.6226927325896
4	70	69	4.3336290478063
4	71	70	2.3424055308367
4	72	71	0.973
4	73	72	3.5729547292363
4	74	73	0.973
4	75	74	9.9624554657191
4	76	75	2.4062525789795
4	77	76	0.973
4	78	77	0.973
4	79	78	0.973
4	80	79	11.205998551499
4	81	80	4.1798045709922
4	82	81	0.973
4	83	82	0.973
4	84	83	8.9746058454096
4	85	84	0.973
4	86	85	0.973
4	87	86	2.0306715020937
4	88	87	7.487625803267
4	89	88	1.8340730603214
4	90	89	0.973
4	91	90	0.973
4	92	91	2.5827777235107
4	93	92	10.355702538345
4	94	93	7.3452783602578
4	95	94	0.973
4	96	95	4.4587550953137
4	97	96	0.973
4	98	97	0.973
4	99	98	6.6889632537902
4	100	99	3.3199054469223
4	101	100	0.973
4	102	101	5.5899283474874
4	103	102	4.6858533173641
4	104	103	3.119809080956
4	105	104	7.9802826739629
4	106	105	0.973
4	107	106	0.973
4	108	107	3.3635450182045
4	109	108	0.973
4	110	109	6.5758528482237
4	111	110	0.973
4	112	111	2.3093272609927
4	113	112	3.320840285798
4	114	113	1.5565146093766
4	115	114	11.575618259312
4	116	115	0.973
4	117	116	2.6644531052992
4	118	117	0.973
4	119	118	1.2222520271971
4	120	119	1.8593197759964
4	121	120	1.3099359096254
4	122	121	7.9314779041395
4	123	122	4.8307625773687
4	124	123	0.973
4	125	124	0.973
4	126	125	0.973
4	127	126	1.7660580658913
4	128	127	7.8313224743531
4	129	128	0.973
4	130	129	1.7353487669572
4	131	130	11.238990864083
4	132	131	0.973
4	133	132	5.9135689438262
4	134	133	0.973
4	135	134	7.9125758729391
4	136	135	0.973
4	137	136	2.7103170654469
4	138	137	0.973
4	139	138	1.3421886827312
4	140	139	5.6389212192053
4	141	140	3.5935655565141
4	142	141	0.973
4	143	142	0.973
4	144	143	11.826939448595
4	145	144	0.973
4	146	145	0.973
4	147	146	2.8168850127706
4	148	147	2.7518985828366
4	149	148	2.1899500514295
4	150	149	2.7332060844257
4	151	150	0.973
4	152	151	6.5539358678312
4	153	152	2.0672304564641
4	154	153	0.973
4	155	154	0.973
4	156	155	8.8244383810609
4	157	156	3.2959790620496
4	158	157	0.973
4	159	158	4.9983925429046
4	160	159	1.3596222057837
4	161	160	0.973
4	162	161	5.0836300677805
4	163	162	0.973
4	164	163	3.7041904985312
4	165	164	0.973
4	166	165	2.7665748440692
4	167	166	6.0398727311649
4	168	167	0.973
4	169	168	3.5914010036851
4	170	169	3.8386644558637
4	171	170	4.729838746913
4	172	171	0.973
4	173	172	7.9139158642324
4	174	173	0.973
4	175	174	0.973
4	176	175	5.8232573667595
4	177	176	0.973
4	178	177	4.1683118208979
4	179	178	3.029263005377
4	180	179	0.973
4	181	180	0.973
4	182	181	9.4912829846282
4	183	182	2.4667644861059
4	184	183	0.973
4	185	184	10.976103939504
4	186	185	0.973
4	187	186	0.973
4	188	187	0.973
4	189	188	1.6537143949182
4	190	189	6.2962892596834
4	191	190	9.896960423755
4	192	191	0.973
4	193	192	0.973
4	194	193	5.2596682681471
4	195	194	2.0327171172986
4	196	195	5.7809717561563
4	197	196	0.973
4	198	197	10.658340251239
4	199	198	0.973
4	200	199	2.6672065675691
4	201	200	0.973
5	5	4	139.74095531587
5	6	5	139.4234595041
5	7	6	137.47070540887
5	8	7	132.84353466706
5	9	8	124.7704769091
5	10	9	114.71225049669
5	11	10	102.5708486921
5	12	11	89.890522300113
5	13	12	77.730639917035
5	14	13	66.355632409813
5	15	14	54.365796025532
5	16	15	43.362187560114
5	17	16	37.235167377463
5	18	17	32.32256606882
5	19	18	27.126801221187
5	20	19	25.244697228731
5	21	20	31.210018956509
5	22	21	38.175025638759
5	23	22	45.456145761758
5	24	23	55.512554051902
5	25	24	66.83816033982
5	26	25	77.91155478398
5	27	26	91.71132347746
5	28	27	103.33243685179
5	29	28	114.40960589172
5	30	29	125.87060157704
5	31	30	137.34210550789
5	32	31	150.34186076
5	33	32	157.5334840881
5	34	33	162.70848699854
5	35	34	168.48673036105
5	36	35	172.68082968112
5	37	36	165.15143498914
5	38	37	156.48923661279
5	39	38	147.94648673206
5	40	39	136.20137461232
5	41	40	122.33603584954
5	42	41	108.08114447664
5	43	42	95.113441838737
5	44	43	81.745351071294
5	45	44	71.078896035547
5	46	45	60.293948962303
5	47	46	46.88803840052
5	48	47	38.074648255085
5	49	48	32.380741391665
5	50	49	27.2618164702
5	51	50	23.822359565306
5	52	51	30.049838221945
5	53	52	36.402264808423
5	54	53	42.079925755261
5	55	54	47.828039992773
5	56	55	60.293608298741
5	57	56	73.826053373541
5	58	57	86.407778632055
5	59	58	99.623769627729
5	60	59	110.37927507186
5	61	60	122.41441415989
5	62	61	132.68772739462
5	63	62	144.54055720928
5	64	63	153.46667352665
5	65	64	159.28150827203
5	66	65	165.24065264617
5	67	66	170.75603736247
5	68	67	171.55884530627
5	69	68	163.33919312972
5	70	69	155.62133715743
5	71	70	148.3586272848
5	72	71	137.54234282886
5	73	72	124.54761802372
5	74	73	110.44214636829
5	75	74	96.881600382439
5	76	75	84.802136492395
5	77	76	71.842017659589
5	78	77	60.909162137328
5	79	78	48.694613147182
5	80	79	39.210067355269
5	81	80	34.429925359289
5	82	81	29.877856774609
5	83	82	25.181041081791
5	84	83	27.331781027966
5	85	84	33.335386609756
5	86	85	40.52933660508
5	87	86	46.599931544696
5	88	87	59.177789285679
5	89	88	71.016848993788
5	90	89	85.254437487541
5	91	90	99.644950670145
5	92	91	111.45911567603
5	93	92	122.30876003059
5	94	93	133.56397935358
5	95	94	144.00534795897
5	96	95	153.68050483229
5	97	96	159.7530875879
5	98	97	165.63213092377
5	99	98	170.75067578045
5	100	99	170.5296012147
5	101	100	162.5391293356
5	102	101	154.3089453966
5	103	102	147.13638991993
5	104	103	133.90730160298
5	105	104	119.54076395317
5	106	105	105.66883531676
5	107	106	92.722724347644
5	108	107	80.015218717672
5	109	108	66.63459290089
5	110	109	55.281230394653
5	111	110	43.83622044263
5	112	111	38.015907120699
5	113	112	32.797549561546
5	114	113	28.083174991174
5	115	114	23.788283776641
5	116	115	28.135543100243
5	117	116	34.570148579191
5	118	117	40.071519468667
5	119	118	46.181591042749
5	120	119	56.820528908952
5	121	120	67.963319985188
5	122	121	78.98869628912
5	123	122	90.480260245016
5	124	123	102.49053898474
5	125	124	112.65046154047
5	126	125	120.33294793362
5	127	126	126.94308936366
5	128	127	136.10263678684
5	129	128	145.29195054074
5	130	129	153.44080317051
5	131	130	158.18077348748
5	132	131	164.02702400971
5	133	132	169.1484499805
5	134	133	173.48421631332
5	135	134	168.72474720608
5	136	135	161.95628249653
5	137	136	155.53662753413
5	138	137	149.04900051009
5	139	138	142.43101947165
5	140	139	132.03436141083
5	141	140	121.34921762619
5	142	141	110.27873728639
5	143	142	99.683854779873
5	144	143	89.140481738888
5	145	144	78.077277676574
5	146	145	68.461520831384
5	147	146	58.237876830857
5	148	147	48.146843819628
5	149	148	40.349602490917
5	150	149	36.102513917582
5	151	150	31.713974408672
5	152	151	27.325759059913
5	153	152	24.141421202428
5	154	153	29.256492838196
5	155	154	34.435590094609
5	156	155	38.491332295315
5	157	156	43.790516004318
5	158	157	51.505946281279
5	159	158	61.702271496613
5	160	159	74.409599190241
5	161	160	86.935470623965
5	162	161	97.28268673854
5	163	162	109.55404074081
5	164	163	119.3200994459
5	165	164	127.14176040657
5	166	165	134.03808933962
5	167	166	143.47813685531
5	168	167	152.23904093204
5	169	168	156.21243849642
5	170	169	161.53913420581
5	171	170	167.20398935258
5	172	171	172.7069234665
5	173	172	169.29796495028
5	174	173	161.25451704468
5	175	174	154.53706342606
5	176	175	149.1456040944
5	177	176	142.4490632342
5	178	177	135.02169857784
5	179	178	126.71153696997
5	180	179	116.64313525226
5	181	180	104.97043583515
5	182	181	95.488696870021
5	183	182	83.419710847635
5	184	183	72.229217047199
5	185	184	63.065986557309
5	186	185	53.39581379496
5	187	186	42.342680122096
5	188	187	37.179138837003
5	189	188	33.772981723733
5	190	189	30.498298666052
5	191	190	26.975637004224
5	192	191	23.525823962204
5	193	192	30.421492082733
5	194	193	36.205161585662
5	195	194	42.736837525246
5	196	195	50.222598151044
5	197	196	63.287692224192
5	198	197	75.230978582428
5	199	198	87.951121267959
5	200	199	99.425315861386
5	201	200	109.82145331771
6	5	4	28.178983050847
6	6	5	28.150164452152
6	7	6	27.97291601442
6	8	7	27.552914956886
6	9	8	26.82013611965
6	10	9	25.907166625795
6	11	10	24.80511055689
6	12	11	23.654137145343
6	13	12	26.907095214848
6	14	13	31.704647841545
6	15	14	36.761512287793
6	16	15	41.402422692722
6	17	16	50.644044436418
6	18	17	61.849837585408
6	19	18	73.701535387738
6	20	19	86.29920006928
6	21	20	96.341275221559
6	22	21	108.06622883363
6	23	22	120.32333059688
6	24	23	126.05284104752
6	25	24	127.64520026778
6	26	25	129.202098971
6	27	26	131.14232083269
6	28	27	132.77622780075
6	29	28	130.02019705414
6	30	29	124.28969921148
6	31	30	118.55394724606
6	32	31	112.05406962
6	33	32	100.37247006817
6	34	33	89.663776187055
6	35	34	77.706789802593
6	36	35	64.664230186589
6	37	36	54.694575968115
6	38	37	43.224978992952
6	39	38	31.913543496481
6	40	39	27.857700841552
6	41	40	26.59916570888
6	42	41	25.305271494527
6	43	42	24.12821339021
6	44	43	25.213840240614
6	45	44	29.712551941842
6	46	45	34.261239151691
6	47	46	39.915350710572
6	48	47	48.729162996599
6	49	48	61.717137902853
6	50	49	73.393561494203
6	51	50	83.904824315577
6	52	51	94.388216751558
6	53	52	105.08194763345
6	54	53	114.63977209274
6	55	54	124.31619824226
6	56	55	126.72504839951
6	57	56	128.62768505664
6	58	57	130.39665227243
6	59	58	132.25479607348
6	60	59	132.03536246407
6	61	60	126.01779292006
6	62	61	120.88113630269
6	63	62	114.95472139536
6	64	63	108.78796859614
6	65	64	96.755263236316
6	66	65	84.423936278561
6	67	66	73.010886356529
6	68	67	63.178613252777
6	69	68	52.294990684343
6	70	69	42.075795317455
6	71	70	32.459257855779
6	72	71	27.979418431088
6	73	72	26.799907566877
6	74	73	25.519575946786
6	75	74	24.288706378189
6	76	75	23.924602504557
6	77	76	29.390695789256
6	78	77	34.001765249634
6	79	78	39.153405066521
6	80	79	46.139237461282
6	81	80	57.042886885369
6	82	81	67.426293914593
6	83	82	78.139873504298
6	84	83	89.812615324558
6	85	84	99.91913785397
6	86	85	112.02949665631
6	87	86	122.24878966087
6	88	87	126.56816631758
6	89	88	128.2327161356
6	90	89	130.23449464847
6	91	90	132.25777408872
6	92	91	131.49544216199
6	93	92	126.07061998471
6	94	93	120.44301032321
6	95	94	115.22232602051
6	96	95	108.34548498137
6	97	96	95.779418657731
6	98	97	83.613845712709
6	99	98	73.021981140744
6	100	99	61.81579351505
6	101	100	51.235628052093
6	102	101	40.338060401184
6	103	102	30.840896168134
6	104	103	27.649471419353
6	105	104	26.34544324691
6	106	105	25.086309961707
6	107	106	23.911211699425
6	108	107	25.943545342996
6	109	108	31.58699274234
6	110	109	36.375416317363
6	111	110	41.202493356481
6	112	111	48.863153312504
6	113	112	60.766385777644
6	114	113	71.52001770163
6	115	114	81.316795319793
6	116	115	91.165675478342
6	117	116	101.99774703183
6	118	117	111.25880325541
6	119	118	121.54455157423
6	120	119	126.23673988441
6	121	120	127.80339562528
6	122	121	129.35354306712
6	123	122	130.96923562744
6	124	123	132.65785852346
6	125	124	130.89976922977
6	126	125	127.05852603319
6	127	126	123.75345531817
6	128	127	119.17368160658
6	129	128	114.57902472963
6	130	129	108.84150242584
6	131	130	99.033026564381
6	132	131	86.935312171115
6	133	132	76.337485676103
6	134	133	67.365433833486
6	135	134	59.42599046755
6	136	135	50.463881891145
6	137	136	41.963631499806
6	138	137	33.373379457763
6	139	138	28.423155970609
6	140	139	27.479467564882
6	141	140	26.509593760809
6	142	141	25.504743559775
6	143	142	24.54306263087
6	144	143	23.58605713566
6	145	144	26.760896375618
6	146	145	30.816462886763
6	147	146	35.128413458928
6	148	147	39.384433676793
6	149	148	43.539923123764
6	150	149	53.227661462002
6	151	150	63.238053690756
6	152	151	73.247706500339
6	153	152	84.441935486508
6	154	153	93.052692143015
6	155	154	101.7712300934
6	156	155	108.598702246
6	157	156	117.51939478866
6	158	157	125.48951943247
6	159	158	126.92310383022
6	160	159	128.70973051523
6	161	160	130.47084478694
6	162	161	131.92564416503
6	163	162	132.4479796296
6	164	163	127.56495027705
6	165	164	123.65411979672
6	166	165	120.20595533019
6	167	166	115.48593157234
6	168	167	111.07720399314
6	169	168	103.10612511903
6	170	169	92.08353155978
6	171	170	80.361180732633
6	172	171	68.97389498734
6	173	172	60.184986766102
6	174	173	49.534675868134
6	175	174	40.640110960058
6	176	175	33.501292041875
6	177	176	28.424793774739
6	178	177	27.750623491336
6	179	178	26.996323108156
6	180	179	26.08243001774
6	181	180	25.022917332123
6	182	181	24.162274703003
6	183	182	24.507657924874
6	184	183	29.227389572719
6	185	184	33.092097396243
6	186	185	37.170614505543
6	187	186	41.832412790231
6	188	187	50.771847242996
6	189	188	58.541395318699
6	190	189	66.011047070879
6	191	190	74.04634556882
6	192	191	83.380603914959
6	193	192	95.013862135156
6	194	193	104.75014233173
6	195	194	115.74562315386
6	196	195	125.30908306764
6	197	196	127.14601104149
6	198	197	128.82521493304
6	199	198	130.61364338212
6	200	199	132.22689384232
6	201	200	132.31427334115
7	6	5	0.31880574807384
7	7	6	1.9608108424009
7	8	7	4.6462616989748
7	9	8	8.1063658869252
7	10	9	10.099725025765
7	11	10	12.191495262262
7	12	11	12.732643365242
7	13	12	12.887633429455
7	14	13	12.344235889694
7	15	14	13.011452389147
7	16	15	11.94119111119
7	17	16	11.650314934167
7	18	17	12.235483587218
7	19	18	12.940739848848
7	20	19	13.882600024307
7	21	20	11.682600024307
7	22	21	13.640402135636
7	23	22	14.259484736562
7	24	23	12.693916839977
7	25	24	11.436565304488
7	26	25	11.181882495607
7	27	26	13.934967527363
7	28	27	11.734967527363
7	29	28	11.9069606786
7	30	29	12.815048420533
7	31	30	12.826798156683
7	32	31	14.535603850229
7	33	32	14.09360133527
7	34	33	11.89360133527
7	35	34	13.280016293946
7	36	35	14.533840379526
7	37	36	12.492262210428
7	38	37	14.371733434463
7	39	38	14.173552572808
7	40	39	13.296620137605
7	41	40	13.922544905182
7	42	41	14.313704746274
7	43	42	13.021205279009
7	44	43	13.775309905025
7	45	44	11.575309905025
7	46	45	11.703898273955
7	47	46	14.548185764776
7	48	47	13.38575415915
7	49	48	14.181428452569
7	50	49	12.749359845381
7	51	50	11.433340116717
7	52	51	12.196013161644
7	53	52	12.440713574259
7	54	53	11.11923965587
7	55	54	11.257216726161
7	56	55	12.876648970262
7	57	56	13.665024890761
7	58	57	12.704990700201
7	59	58	13.345470453693
7	60	59	11.145470453693
7	61	60	13.457023664924
7	62	61	11.487047910771
7	63	62	13.253175567451
7	64	63	11.233630597439
7	65	64	13.364113506592
7	66	65	13.695777318754
7	67	66	12.675893745699
7	68	67	11.179859951219
7	69	68	13.637490723828
7	70	69	12.804944414842
7	71	70	12.049796802887
7	72	71	12.633915021747
7	73	72	13.048338935325
7	74	73	14.163668547256
7	75	74	13.616494602604
7	76	75	12.233519153867
7	77	76	14.064409533713
7	78	77	11.864409533713
7	79	78	13.255312044836
7	80	79	12.518349915358
7	81	80	11.905576142214
7	82	81	11.337529133038
7	83	82	11.698040958575
7	84	83	13.123811718041
7	85	84	11.757575855322
7	86	85	14.088769093353
7	87	86	11.888769093353
7	88	87	14.155049120855
7	89	88	11.955049120855
7	90	89	14.377076727535
7	91	90	14.531499647267
7	92	91	12.331499647267
7	93	92	12.131469338864
7	94	93	12.584960728382
7	95	94	11.67495808642
7	96	95	12.323515869641
7	97	96	13.956490386707
7	98	97	13.511682771925
7	99	98	11.763844966969
7	100	99	12.899834518285
7	101	100	13.257250281364
7	102	101	13.654964311478
7	103	102	11.900218729243
7	104	103	14.25610030369
7	105	104	14.425811657646
7	106	105	13.929161967557
7	107	106	12.999524526495
7	108	107	13.25228015551
7	109	108	14.520746586692
7	110	109	12.320746586692
7	111	110	12.420203021226
7	112	111	10.220203021226
7	113	112	12.99700998632
7	114	113	11.741773666488
7	115	114	10.696994863364
7	116	115	11.229068358225
7	117	116	12.601654287096
7	118	117	10.77398983995
7	119	118	11.966080888393
7	120	119	12.593980267538
7	121	120	11.251959019059
7	122	121	11.133393912959
7	123	122	11.604148889806
7	124	123	12.12794561634
7	125	124	10.790129323977
7	126	125	8.5901293239769
7	127	126	7.3910927827166
7	128	127	10.241696878795
7	129	128	10.274979935526
7	130	129	10.334007033192
7	131	130	10.893774992353
7	132	131	13.436315731768
7	133	132	11.770466571499
7	134	133	9.9648013996997
7	135	134	9.6118869311355
7	136	135	11.229778670491
7	137	136	10.651057139588
7	138	137	10.763831785059
7	139	138	8.8704890333674
7	140	139	10.439552988351
7	141	140	10.729228957555
7	142	141	11.116155348937
7	143	142	10.638595276012
7	144	143	10.586873290768
7	145	144	11.758324656576
7	146	145	10.435085047602
7	147	146	11.094768343197
7	148	147	10.950857991278
7	149	148	9.0857438604379
7	150	149	10.577936060284
7	151	150	10.93023833191
7	152	151	10.929430968163
7	153	152	12.217454002202
7	154	153	10.017454002202
7	155	154	10.142843000724
7	156	155	7.9428430007236
7	157	156	10.378022603428
7	158	157	11.910056741864
7	159	158	10.296220460654
7	160	159	12.831823685126
7	161	160	12.648589665371
7	162	161	10.448589665371
7	163	162	12.586758190191
7	164	163	10.919864086837
7	165	164	8.7457465906256
7	166	165	7.7110917434642
7	167	166	10.555336493215
7	168	167	9.8092057026283
7	169	168	8.9228986943877
7	170	169	12.242233733627
7	171	170	13.019418520888
7	172	171	12.647278785717
7	173	172	10.447278785717
7	174	173	13.345144520003
7	175	174	11.145144520003
7	176	175	8.9451445200032
7	177	176	9.0126489557649
7	178	177	7.4580087601473
7	179	178	8.344447988927
7	180	179	10.109942312728
7	181	180	11.720859084636
7	182	181	9.5208590846356
7	183	182	12.335086505048
7	184	183	12.144000354024
7	185	184	9.9440003540243
7	186	185	10.494137572811
7	187	186	11.994936204792
7	188	187	10.683484988203
7	189	188	8.4834849882027
7	190	189	8.1560314563075
7	191	190	8.7736549820955
7	192	191	10.117590634848
7	193	192	13.526848837148
7	194	193	11.326848837148
7	195	194	12.791758931496
7	196	195	12.677679478822
7	197	196	13.19309516668
7	198	197	12.060296898357
7	199	198	12.844764227827
7	200	199	11.586609356545
7	201	200	10.722143223472
8	7	6	1.642005094327
8	8	7	2.6854508565739
8	9	8	3.4601041879505
8	10	9	1.9933591388399
8	11	10	2.0917702364968
8	12	11	0.54114810298019
8	13	12	0.15499006421305
8	14	13	-0.54339753976092
8	15	14	0.66721649945248
8	16	15	-1.0702612779569
8	17	16	-0.29087617702316
8	18	17	0.58516865305137
8	19	18	0.70525626162998
8	20	19	0.94186017545871
8	21	20	-2.2
8	22	21	1.9578021113295
8	23	22	0.61908260092605
8	24	23	-1.565567896585
8	25	24	-1.2573515354889
8	26	25	-0.25468280888163
8	27	26	2.7530850317562
8	28	27	-2.2
8	29	28	0.17199315123726
8	30	29	0.90808774193283
8	31	30	0.011749736149795
8	32	31	1.7088056935463
8	33	32	-0.44200251495931
8	34	33	-2.2
8	35	34	1.3864149586763
8	36	35	1.2538240855793
8	37	36	-2.0415781690972
8	38	37	1.8794712240342
8	39	38	-0.19818086165469
8	40	39	-0.87693243520334
8	41	40	0.62592476757709
8	42	41	0.3911598410923
8	43	42	-1.2924994672649
8	44	43	0.75410462601576
8	45	44	-2.2
8	46	45	0.12858836892992
8	47	46	2.8442874908214
8	48	47	-1.1624316056259
8	49	48	0.79567429341841
8	50	49	-1.4320686071878
8	51	50	-1.3160197286634
8	52	51	0.76267304492649
8	53	52	0.2447004126152
8	54	53	-1.3214739183895
8	55	54	0.13797707029153
8	56	55	1.6194322441006
8	57	56	0.78837592049967
8	58	57	-0.96003419056069
8	59	58	0.6404797534924
8	60	59	-2.2
8	61	60	2.3115532112308
8	62	61	-1.969975754153
8	63	62	1.7661276566796
8	64	63	-2.0195449700113
8	65	64	2.1304829091532
8	66	65	0.33166381216142
8	67	66	-1.0198835730553
8	68	67	-1.4960337944794
8	69	68	2.4576307726093
8	70	69	-0.83254630898591
8	71	70	-0.75514761195518
8	72	71	0.58411821885966
8	73	72	0.4144239135785
8	74	73	1.1153296119301
8	75	74	-0.54717394465115
8	76	75	-1.3829754487379
8	77	76	1.8308903798461
8	78	77	-2.2
8	79	78	1.3909025111236
8	80	79	-0.73696212947834
8	81	80	-0.612773773144
8	82	81	-0.56804700917564
8	83	82	0.36051182553638
8	84	83	1.4257707594661
8	85	84	-1.3662358627189
8	86	85	2.3311932380311
8	87	86	-2.2
8	88	87	2.2662800275022
8	89	88	-2.2
8	90	89	2.4220276066801
8	91	90	0.15442291973159
8	92	91	-2.2
8	93	92	-0.20003030840307
8	94	93	0.4534913895186
8	95	94	-0.91000264196191
8	96	95	0.64855778322089
8	97	96	1.632974517066
8	98	97	-0.44480761478189
8	99	98	-1.7478378049564
8	100	99	1.135989551316
8	101	100	0.35741576307919
8	102	101	0.397714030114
8	103	102	-1.754745582235
8	104	103	2.3558815744473
8	105	104	0.16971135395579
8	106	105	-0.49664969008882
8	107	106	-0.92963744106237
8	108	107	0.25275562901516
8	109	108	1.2684664311819
8	110	109	-2.2
8	111	110	0.099456434533932
8	112	111	-2.2
8	113	112	2.7768069650942
8	114	113	-1.2552363198318
8	115	114	-1.0447788031249
8	116	115	0.53207349486183
8	117	116	1.372585928871
8	118	117	-1.8276644471459
8	119	118	1.192091048443
8	120	119	0.62789937914452
8	121	120	-1.3420212484787
8	122	121	-0.11856510609976
8	123	122	0.47075497684679
8	124	123	0.52379672653367
8	125	124	-1.337816292363
8	126	125	-2.2
8	127	126	-1.1990365412603
8	128	127	2.8506040960783
8	129	128	0.033283056731131
8	130	129	0.059027097666371
8	131	130	0.55976795916088
8	132	131	2.5425407394144
8	133	132	-1.665849160269
8	134	133	-1.8056651717989
8	135	134	-0.35291446856429
8	136	135	1.6178917393554
8	137	136	-0.5787215309031
8	138	137	0.11277464547141
8	139	138	-1.8933427516917
8	140	139	1.5690639549837
8	141	140	0.28967596920404
8	142	141	0.38692639138219
8	143	142	-0.47756007292515
8	144	143	-0.051721985244274
8	145	144	1.171451365808
8	146	145	-1.3232396089742
8	147	146	0.65968329559546
8	148	147	-0.14391035191974
8	149	148	-1.8651141308396
8	150	149	1.4921921998463
8	151	150	0.3523022716254
8	152	151	-0.0008073637462207
8	153	152	1.2880230340389
8	154	153	-2.2
8	155	154	0.12538899852126
8	156	155	-2.2
8	157	156	2.435179602704
8	158	157	1.5320341384364
8	159	158	-1.6138362812099
8	160	159	2.535603224472
8	161	160	-0.18323401975504
8	162	161	-2.2
8	163	162	2.1381685248195
8	164	163	-1.6668941033532
8	165	164	-2.1741174962118
8	166	165	-1.0346548471614
8	167	166	2.8442447497509
8	168	167	-0.74613079058678
8	169	168	-0.88630700824065
8	170	169	3.3193350392394
8	171	170	0.77718478726075
8	172	171	-0.37213973517052
8	173	172	-2.2
8	174	173	2.897865734286
8	175	174	-2.2
8	176	175	-2.2
8	177	176	0.067504435761672
8	178	177	-1.5546401956176
8	179	178	0.88643922877964
8	180	179	1.7654943238012
8	181	180	1.6109167719074
8	182	181	-2.2
8	183	182	2.8142274204127
8	184	183	-0.1910861510241
8	185	184	-2.2
8	186	185	0.5501372187864
8	187	186	1.5007986319811
8	188	187	-1.3114512165891
8	189	188	-2.2
8	190	189	-0.32745353189521
8	191	190	0.61762352578808
8	192	191	1.3439356527524
8	193	192	3.4092582023004
8	194	193	-2.2
8	195	194	1.4649100943477
8	196	195	-0.11407945267392
8	197	196	0.51541568785738
8	198	197	-1.1327982683229
8	199	198	0.78446732947003
8	200	199	-1.2581548712817
8	201	200	-0.86446613307287
9	7	6	1.9812243442874
9	8	7	4.3504325785742
9	9	8	8.3100386598653
9	10	9	6.5442843965317
9	11	10	8.0114486380096
9	12	11	3.5754621733357
9	13	12	2.410825070421
9	14	13	0.973
9	15	14	4.0333965479617
9	16	15	0.973
9	17	16	0.973
9	18	17	3.5949706265151
9	19	18	4.133950420503
9	20	19	5.1780483855077
9	21	20	0.973
9	22	21	8.4384202985352
9	23	22	4.1932224772522
9	24	23	0.973
9	25	24	0.973
9	26	25	0.973
9	27	26	11.27795465392
9	28	27	0.973
9	29	28	2.3338858990467
9	30	29	4.7271769822721
9	31	30	1.9600381142549
9	32	31	8.080989706326
9	33	32	0.973
9	34	33	0.973
9	35	34	6.4041825642987
9	36	35	6.4864313077253
9	37	36	0.973
9	38	37	8.587226591314
9	39	38	1.379812961271
9	40	39	0.973
9	41	40	4.1311134101922
9	42	41	3.420751600199
9	43	42	0.973
9	44	43	4.5195125430781
9	45	44	0.973
9	46	45	2.1854006374729
9	47	46	12.068642763321
9	48	47	0.973
9	49	48	4.776978325073
9	50	49	0.973
9	51	50	0.973
9	52	51	4.1075957690217
9	53	52	2.6216761299776
9	54	53	0.973
9	55	54	2.1591633780442
9	56	55	6.9539426998224
9	57	56	4.6012604490231
9	58	57	0.973
9	59	58	4.0333045537299
9	60	59	0.973
9	61	60	9.4809866861549
9	62	61	0.973
9	63	62	7.6054185502998
9	64	63	0.973
9	65	64	8.8369327159915
9	66	65	3.1027203153016
9	67	66	0.973
9	68	67	0.973
9	69	68	10.079510571454
9	70	69	0.973
9	71	70	0.973
9	72	71	3.684256461044
9	73	72	3.2478987339347
9	74	73	5.862852936834
9	75	74	0.973
9	76	75	0.973
9	77	76	8.2513140302067
9	78	77	0.973
9	79	78	6.4078669334429
9	80	79	0.973
9	81	80	0.973
9	82	81	0.973
9	83	82	2.8385593891875
9	84	83	6.4613861642716
9	85	84	0.973
9	86	85	9.9633003563782
9	87	86	0.973
9	88	87	9.7859554456808
9	89	88	0.973
9	90	89	10.470100895692
9	91	90	2.6352706984017
9	92	91	0.973
9	93	92	1.275331677912
9	94	93	3.2766583783961
9	95	94	0.973
9	96	95	3.8035744987903
9	97	96	7.5269256401514
9	98	97	0.973
9	99	98	0.973
9	100	99	5.4622217226326
9	101	100	3.1067171513561
9	102	101	3.3127350984098
9	103	102	0.973
9	104	103	10.159518857719
9	105	104	2.67325098313
9	106	105	0.973
9	107	106	0.973
9	108	107	2.7715437996362
9	109	108	6.5323181543349
9	110	109	0.973
9	111	110	2.1838445438884
9	112	111	0.973
9	113	112	10.637527425905
9	114	113	0.973
9	115	114	0.973
9	116	115	3.2223892952492
9	117	116	6.0713107510476
9	118	117	0.973
9	119	118	5.2833071931299
9	120	119	3.8078296978291
9	121	120	0.973
9	122	121	1.4564311256606
9	123	122	3.1306460533239
9	124	123	3.3908147973046
9	125	124	0.973
9	126	125	0.973
9	127	126	0.973
9	128	127	8.7393004045243
9	129	128	1.7882939287684
9	130	129	1.8574672883969
9	131	130	3.2245588558928
9	132	131	10.215386745592
9	133	132	0.973
9	134	133	0.973
9	135	134	0.973
9	136	135	6.1611726205268
9	137	136	0.973
9	138	137	2.0369996371103
9	139	138	0.973
9	140	139	5.6663664704859
9	141	140	2.4907040085372
9	142	141	2.8097092618911
9	143	142	0.973
9	144	143	1.5983618850172
9	145	144	5.147008141631
9	146	145	0.973
9	147	146	3.5352603249377
9	148	147	1.3797831441754
9	149	148	0.973
9	150	149	5.5336383349604
9	151	150	2.6859366542295
9	152	151	1.755714168894
9	153	152	5.660300259993
9	154	153	0.973
9	155	154	2.002189168999
9	156	155	0.973
9	157	156	7.8045282027979
9	158	157	6.2380431100971
9	159	158	0.973
9	160	159	9.7654639678053
9	161	160	1.3485524584339
9	162	161	0.973
9	163	162	8.3873347618828
9	164	163	0.973
9	165	164	0.973
9	166	165	0.973
9	167	166	8.9631216853037
9	168	167	0.973
9	169	168	0.973
9	170	169	11.663353666678
9	171	170	4.3804810528821
9	172	171	0.973
9	173	172	0.973
9	174	173	11.293381692215
9	175	174	0.973
9	176	175	0.973
9	177	176	1.7590216345941
9	178	177	0.973
9	179	178	3.3488502602453
9	180	179	5.9947830524802
9	181	180	6.3745623688442
9	182	181	0.973
9	183	182	10.244435710606
9	184	183	1.3020206190105
9	185	184	0.973
9	186	185	3.1143432485643
9	187	186	6.1865425352153
9	188	187	0.973
9	189	188	0.973
9	190	189	0.973
9	191	190	2.9015656143544
9	192	191	4.9707199675684
9	193	192	13.10526206291
9	194	193	0.973
9	195	194	6.4364782549169
9	196	195	1.5612533052747
9	197	196	3.597352831609
9	198	197	0.973
9	199	198	4.3537914552703
9	200	199	0.973
9	201	200	0.973
10	9	8	139.74095531587
10	10	9	138.92553984061
10	11	10	136.02546323769
10	12	11	132.67953619812
10	13	12	129.07720143511
10	14	13	123.9250087966
10	15	14	117.1812338244
10	16	15	109.6040319424
10	17	16	101.0242774328
10	18	17	89.033082606207
10	19	18	76.562498511145
10	20	19	64.987452382945
10	21	20	53.685950006392
10	22	21	41.231160194513
10	23	22	36.010249760472
10	24	23	31.285013967723
10	25	24	26.842727053505
10	26	25	25.071243743443
10	27	26	31.08297401501
10	28	27	38.361845697253
10	29	28	45.04040584033
10	30	29	53.118379540722
10	31	30	65.713999339474
10	32	31	77.27600271077
10	33	32	89.332329786706
10	34	33	100.81161607387
10	35	34	112.27031928381
10	36	35	124.07497379883
10	37	36	136.42463507351
10	38	37	149.17743012465
10	39	38	156.72659142076
10	40	39	162.72437275194
10	41	40	168.47738056637
10	42	41	173.25566944044
10	43	42	166.35992505504
10	44	43	158.31825761929
10	45	44	151.6025844705
10	46	45	143.08445335327
10	47	46	130.68796956828
10	48	47	117.81271923619
10	49	48	106.86002825147
10	50	49	95.736336606884
10	51	50	82.946777858134
10	52	51	71.415869277545
10	53	52	61.106096518284
10	54	53	50.544128069264
10	55	54	39.576556128763
10	56	55	34.936275376695
10	57	56	30.396844258724
10	58	57	25.478710357403
10	59	58	27.261874705043
10	60	59	33.148403560445
10	61	60	38.822473927288
10	62	61	46.123355725993
10	63	62	57.744969098783
10	64	63	71.879638213152
10	65	64	83.917208324909
10	66	65	96.842502349803
10	67	66	110.12978475562
10	68	67	120.62466386152
10	69	68	133.29786966661
10	70	69	144.00352999858
10	71	70	153.47760051375
10	72	71	159.69335346051
10	73	72	165.68745373258
10	74	73	170.88702228775
10	75	74	169.95504632776
10	76	75	163.1203083611
10	77	76	156.57439478337
10	78	77	149.65432260222
10	79	78	139.49022488041
10	80	79	128.03508882348
10	81	80	114.01000263111
10	82	81	101.98734827043
10	83	82	89.410616535631
10	84	83	76.201041541881
10	85	84	65.192424870367
10	86	85	52.598619485353
10	87	86	40.873916513162
10	88	87	35.903352499922
10	89	88	30.64368093626
10	90	89	25.166303105569
10	91	90	27.384473056049
10	92	91	34.290214635326
10	93	92	41.041298799197
10	94	93	47.089955336026
10	95	94	57.95044607163
10	96	95	69.530071775918
10	97	96	81.874768763164
10	98	97	93.224720828607
10	99	98	106.70978825249
10	100	99	117.7422336816
10	101	100	129.07910018276
10	102	101	139.47894575938
10	103	102	149.32942485291
10	104	103	156.5619790058
10	105	104	161.38567194588
10	106	105	166.5855690716
10	107	106	171.99657297025
10	108	107	168.49956109141
10	109	108	160.87573693659
10	110	109	154.28458503455
10	111	110	146.73721230829
10	112	111	134.15185851171
10	113	112	120.56044456414
10	114	113	107.96780469576
10	115	114	95.906170103214
10	116	115	82.797594181383
10	117	116	70.685151277747
10	118	117	58.531922067915
10	119	118	47.154068520007
10	120	119	37.948160645774
10	121	120	32.825991503897
10	122	121	28.090799758584
10	123	122	23.608294301313
10	124	123	28.859641822795
10	125	124	34.416619094748
10	126	125	41.33257899408
10	127	126	47.521272884253
10	128	127	57.694771740116
10	129	128	68.678326480487
10	130	129	80.465913960212
10	131	130	93.785844937843
10	132	131	106.91256772438
10	133	132	117.83550750068
10	134	133	128.80901287899
10	135	134	138.86960124633
10	136	135	149.17773535001
10	137	136	155.6794280104
10	138	137	160.55870541203
10	139	138	165.65264882088
10	140	139	171.75333136135
10	141	140	169.1536191884
10	142	141	161.29954833946
10	143	142	154.4852529241
10	144	143	147.1768976526
10	145	144	135.97671334942
10	146	145	123.37075382022
10	147	146	110.65813230043
10	148	147	96.441746099301
10	149	148	82.528540175733
10	150	149	71.416213952509
10	151	150	60.916713605982
10	152	151	48.868033976567
10	153	152	39.00316281341
10	154	153	33.771584126626
10	155	154	28.594969591423
10	156	155	23.395495897023
10	157	156	28.455197032993
10	158	157	33.523506502614
10	159	158	39.62112396782
10	160	159	44.59538637732
10	161	160	52.780346979846
10	162	161	66.096522824031
10	163	162	78.243770568517
10	164	163	88.970010505381
10	165	164	98.812467420044
10	166	165	107.87402527817
10	167	166	114.65556999764
10	168	167	122.41763043583
10	169	168	132.08039888285
10	170	169	140.41159808707
10	171	170	150.96729698229
10	172	171	157.4478490132
10	173	172	162.23293352356
10	174	173	166.97830243142
10	175	174	172.76455632629
10	176	175	168.20341017163
10	177	176	161.42727362666
10	178	177	154.56356338283
10	179	178	149.02584742597
10	180	179	142.81996172513
10	181	180	133.21063163607
10	182	181	122.57832659906
10	183	182	112.9411536267
10	184	183	100.19068885647
10	185	184	87.417870337154
10	186	185	77.527234088612
10	187	186	68.646688881306
10	188	187	58.461358872384
10	189	188	50.079078085141
10	190	189	41.476878820167
10	191	190	37.404255641144
10	192	191	33.171843468364
10	193	192	29.027763905915
10	194	193	24.523804065583
10	195	194	27.80252628886
10	196	195	34.480745798327
10	197	196	40.832485247048
10	198	197	47.742706800161
10	199	198	58.721555191395
10	200	199	70.321360848209
10	201	200	80.067327305785
11	9	8	28.178983050847
11	10	9	28.104969062376
11	11	10	27.841733640967
11	12	11	27.538029072134
11	13	12	27.211050774925
11	14	13	26.743394300259
11	15	14	26.131272384267
11	16	15	25.443501610037
11	17	16	24.66473070045
11	18	17	23.576308684215
11	19	18	27.399773559598
11	20	19	32.281694993164
11	21	20	37.048245905577
11	22	21	42.306745366131
11	23	22	53.43811881335
11	24	23	64.216525516248
11	25	24	74.349517212848
11	26	25	86.007206943984
11	27	26	96.127406647747
11	28	27	108.38072336602
11	29	28	119.6234703504
11	30	29	125.71622455557
11	31	30	127.48714531793
11	32	31	129.11274152929
11	33	32	130.80783873591
11	34	33	132.42180507879
11	35	34	131.08984035809
11	36	35	125.18751310058
11	37	36	119.01268246325
11	38	37	112.63628493767
11	39	38	102.04218247587
11	40	39	89.630903612256
11	41	40	77.726137441771
11	42	41	65.425374191646
11	43	42	56.294734888769
11	44	43	45.646781506833
11	45	44	36.754574114791
11	46	45	28.482467142948
11	47	46	27.357257681288
11	48	47	26.188591328298
11	49	48	25.19443268296
11	50	49	24.184752574941
11	51	50	24.707123367388
11	52	51	29.57042923456
11	53	52	33.918705695076
11	54	53	38.373348862873
11	55	54	45.303265411207
11	56	55	55.887887079857
11	57	56	66.242467662769
11	58	57	77.460880824098
11	59	58	89.69493440466
11	60	59	99.604368941399
11	61	60	109.15614898669
11	62	61	121.44651772894
11	63	62	126.36671445906
11	64	63	128.35402269824
11	65	64	130.04648271051
11	66	65	131.86375505709
11	67	66	132.16010762219
11	68	67	126.91266806924
11	69	68	120.57606516669
11	70	69	115.22323500071
11	71	70	108.76535725429
11	72	71	95.903027184251
11	73	72	83.499365579195
11	74	73	72.739837722921
11	75	74	61.055026708863
11	76	75	52.005165864934
11	77	76	43.33773673103
11	78	77	34.174885049682
11	79	78	28.156224641028
11	80	79	27.116459841636
11	81	80	25.843424684413
11	82	81	24.752147135429
11	83	82	23.610576849031
11	84	83	27.552222587103
11	85	84	32.195245266005
11	86	85	37.506841242239
11	87	86	42.520059633456
11	88	87	53.681954719148
11	89	88	65.679425686377
11	90	89	78.173491276759
11	91	90	89.901317548862
11	92	91	101.52650376445
11	93	92	112.89133832438
11	94	93	123.07370002841
11	95	94	126.39560414001
11	96	95	128.02367801868
11	97	96	129.75931949953
11	98	97	131.35510169092
11	99	98	133.25107713828
11	100	99	128.3538831592
11	101	100	122.68544990862
11	102	101	117.48552712031
11	103	102	112.56028757354
11	104	103	102.38281686611
11	105	104	92.401092804145
11	106	105	81.640885033003
11	107	106	70.443831554398
11	108	107	59.127822050309
11	109	108	49.033133996975
11	110	109	40.305804901744
11	111	110	30.312346009371
11	112	111	27.671669467799
11	113	112	26.437998062553
11	114	113	25.294983819729
11	115	114	24.200168096011
11	116	115	24.770043461269
11	117	116	29.878618750663
11	118	117	35.00439617819
11	119	118	39.803149158378
11	120	119	49.017685084347
11	121	120	60.701508841228
11	122	121	71.502625375034
11	123	122	81.727356792789
11	124	123	92.384629647347
11	125	124	101.73929414509
11	126	125	113.38168197068
11	127	126	123.7997837891
11	128	127	126.35965680361
11	129	128	127.90392421125
11	130	129	129.5612371295
11	131	130	131.43399469906
11	132	131	133.27958755561
11	133	132	128.30724624966
11	134	133	122.82049356051
11	135	134	117.79019937683
11	136	135	112.63613232499
11	137	136	104.2090899345
11	138	137	94.112344297953
11	139	138	83.571387788925
11	140	139	70.947174252725
11	141	140	59.993858874324
11	142	141	49.594301702117
11	143	142	40.571508793411
11	144	143	30.894532363929
11	145	144	27.837308689787
11	146	145	26.693085442165
11	147	146	25.539180652334
11	148	147	24.248781492252
11	149	148	24.883520375523
11	150	149	29.570283863555
11	151	150	33.998580322657
11	152	151	39.080262648373
11	153	152	46.611193020464
11	154	153	58.54458328025
11	155	154	70.352598636894
11	156	155	82.280554317512
11	157	156	91.703783724951
11	158	157	100.23582053898
11	159	158	110.5006035012
11	160	159	118.87432066565
11	161	160	125.668697805
11	162	161	127.54092740977
11	163	162	129.24880789361
11	164	163	130.75689731753
11	165	164	132.1407284891
11	166	165	133.28798736091
11	167	166	129.89721500118
11	168	167	126.01618478209
11	169	168	121.18480055857
11	170	169	117.01920095646
11	171	170	111.74135150885
11	172	171	100.54967572746
11	173	172	90.647844539436
11	174	173	80.828197310881
11	175	174	68.854634638383
11	176	175	58.735689297614
11	177	176	49.763422461551
11	178	177	40.67519949196
11	179	178	33.34272251226
11	180	179	28.458459651172
11	181	180	27.586235775115
11	182	181	26.621158061596
11	183	182	25.746406930531
11	184	183	24.589067167993
11	185	184	23.429698390582
11	186	185	26.99288418385
11	187	186	30.738365930456
11	188	187	35.034157094291
11	189	188	38.569489548623
11	190	189	42.197575389696
11	191	190	50.258348959077
11	192	191	59.912609980828
11	193	192	69.365381629131
11	194	193	79.639051147828
11	195	194	90.605072044112
11	196	195	101.84724560286
11	197	196	112.539819751
11	198	197	124.17254759401
11	199	198	126.50402065084
11	200	199	128.13493179337
11	201	200	129.50519658579
12	10	9	0.81877974746749
12	11	10	2.9120418493403
12	12	11	3.3597317927051
12	13	12	3.6171974128811
12	14	13	5.1734497509897
12	15	14	6.7715986956609
12	16	15	7.6084641899215
12	17	16	8.6151531873038
12	18	17	12.040668554604
12	19	18	13.294331115597
12	20	19	12.561319168351
12	21	20	12.264467619519
12	22	21	13.519305444831
12	23	22	12.385246458506
12	24	23	11.768824977959
12	25	24	11.064103356605
12	26	25	12.835381102442
12	27	26	11.773487402984
12	28	27	14.255081347233
12	29	28	13.079419761473
12	30	29	11.090479171179
12	31	30	12.719021367767
12	32	31	11.675278412919
12	33	32	12.174445096446
12	34	33	11.59175093453
12	35	34	12.060447002105
12	36	35	13.199308624767
12	37	36	13.808704894195
12	38	37	14.259466678529
12	39	38	13.541138356827
12	40	39	13.784575831886
12	41	40	13.222017959734
12	42	41	13.601593584564
12	43	42	11.440952496529
12	44	43	13.342190484908
12	45	44	11.142190484908
12	46	45	12.451092912975
12	47	46	12.447629669608
12	48	47	12.928371529953
12	49	48	10.997880014052
12	50	49	11.169586194955
12	51	50	13.096978075845
12	52	51	12.513420800023
12	53	52	11.188235860826
12	54	53	11.461920346991
12	55	54	13.612667365741
12	56	55	11.557233208018
12	57	56	11.306053850028
12	58	57	12.249263241348
12	59	58	13.728290557904
12	60	59	11.528290557904
12	61	60	11.11220779542
12	62	61	14.29818637976
12	63	62	13.641526522158
12	64	63	14.273149028347
12	65	64	12.155504366891
12	66	65	13.051925472027
12	67	66	13.675020105015
12	68	67	11.734790554196
12	69	68	14.17047440684
12	70	69	11.97047440684
12	71	70	11.859217845412
12	72	71	14.285535453163
12	73	72	13.776115730448
12	74	73	11.950060044574
12	75	74	13.539734774428
12	76	75	11.339734774428
12	77	76	10.860536891078
12	78	77	11.481315529133
12	79	78	12.827726324132
12	80	79	11.502398093274
12	81	80	14.082951426782
12	82	81	12.072257885636
12	83	82	12.628621293275
12	84	83	14.065678262311
12	85	84	11.946626050673
12	86	85	13.666883676588
12	87	86	12.759677603185
12	88	87	12.23113755921
12	89	88	13.099907981158
12	90	89	13.642134245761
12	91	90	13.1902979125
12	92	91	13.524336225862
12	93	92	13.221452189187
12	94	93	11.845804506257
12	95	94	11.956009449364
12	96	95	11.6930733951
12	97	96	12.465640220019
12	98	97	11.461149602007
12	99	98	13.617183072419
12	100	99	12.222879935332
12	101	100	12.676254065401
12	102	101	11.628529343331
12	103	102	11.014258273454
12	104	103	12.992861016347
12	105	104	11.086192952163
12	106	105	11.950815191419
12	107	106	12.435997487903
12	108	107	13.404520186755
12	109	108	12.648933185773
12	110	109	10.935593257817
12	111	110	12.522090148456
12	112	111	13.348245909131
12	113	112	13.647489920534
12	114	113	12.644595061239
12	115	114	12.111398943626
12	116	115	13.429407423288
12	117	116	13.14450582191
12	118	117	13.188767400147
12	119	118	12.347324432499
12	120	119	13.989485990648
12	121	120	12.757440005588
12	122	121	11.793621595177
12	123	122	11.164272959736
12	124	123	12.198869524334
12	125	124	10.882890441614
12	126	125	13.544347979055
12	127	126	12.120056334111
12	128	127	10.853129704409
12	129	128	11.091162615964
12	130	129	11.903072609725
12	131	130	13.450428754483
12	132	131	13.255327667735
12	133	132	12.122407396949
12	134	133	12.26996385194
12	135	134	11.249190786431
12	136	135	11.525982671227
12	137	136	11.134123228999
12	138	137	11.213941561683
12	139	138	11.707303972143
12	140	139	14.021071536626
12	141	140	12.878388368102
12	142	141	13.030942921453
12	143	142	11.30581787652
12	144	143	12.125528560179
12	145	144	12.245358188679
12	146	145	12.657969676816
12	147	146	12.765071737506
12	148	147	14.275040708409
12	149	148	14.259172364996
12	150	149	12.059172364996
12	151	150	11.394129535226
12	152	151	13.075309480932
12	153	152	13.221870523455
12	154	153	13.029938954088
12	155	154	12.893043461798
12	156	155	13.013385880747
12	157	156	10.813385880747
12	158	157	9.925874082745
12	159	158	11.941690523667
12	160	159	9.7416905236672
12	161	160	11.620669461415
12	162	161	13.446636831314
12	163	162	12.266256531257
12	164	163	10.831326852712
12	165	164	9.9388852481348
12	166	165	9.1602725380183
12	167	166	7.5859639252626
12	168	167	8.6791045987371
12	169	168	10.804370660716
12	170	169	9.3154839365283
12	171	170	11.8027958625
12	172	171	13.197460002774
12	173	172	10.997460002774
12	174	173	10.906182461283
12	175	174	13.298426733511
12	176	175	12.130833612934
12	177	176	11.242507260717
12	178	177	11.387803616358
12	179	178	9.1878036163579
12	180	179	8.441528036577
12	181	180	9.6489766288778
12	182	181	10.676172205805
12	183	182	9.6769343874124
12	184	183	12.803071123076
12	185	184	12.825517100104
12	186	185	10.625517100104
12	187	186	9.637228353342
12	188	187	11.05318973765
12	189	188	9.0965083992861
12	190	189	9.3351654343593
12	191	190	9.1832283101711
12	192	191	10.541382542743
12	193	192	10.321378488676
12	194	193	11.217707939562
12	195	194	12.408792475908
12	196	195	13.078752658104
12	197	196	12.43936787055
12	198	197	13.533109892202
12	199	198	11.456312328317
12	200	199	11.713451054277
12	201	200	9.8414494565585
13	11	10	2.0932621018728
13	12	11	0.44768994336482
13	13	12	0.25746562017594
13	14	13	1.5562523381086
13	15	14	1.5981489446713
13	16	15	0.83686549426056
13	17	16	1.0066889973823
13	18	17	3.4255153673002
13	19	18	1.2536625609928
13	20	19	-0.73301194724627
13	21	20	-0.29685154883191
13	22	21	1.2548378253123
13	23	22	-1.1340589863248
13	24	23	-0.61642148054671
13	25	24	-0.70472162135411
13	26	25	1.7712777458364
13	27	26	-1.0618936994579
13	28	27	2.4815939442487
13	29	28	-1.1756615857594
13	30	29	-1.9889405902941
13	31	30	1.6285421965877
13	32	31	-1.0437429548474
13	33	32	0.49916668352671
13	34	33	-0.58269416191615
13	35	34	0.46869606757537
13	36	35	1.1388616226614
13	37	36	0.60939626942854
13	38	37	0.45076178433374
13	39	38	-0.71832832170185
13	40	39	0.24343747505918
13	41	40	-0.56255787215196
13	42	41	0.37957562482916
13	43	42	-2.160641088034
13	44	43	1.9012379883789
13	45	44	-2.2
13	46	45	1.3089024280664
13	47	46	-0.0034632433671504
13	48	47	0.48074186034501
13	49	48	-1.9304915159009
13	50	49	0.17170618090313
13	51	50	1.9273918808904
13	52	51	-0.58355727582239
13	53	52	-1.3251849391963
13	54	53	0.27368448616471
13	55	54	2.1507470187498
13	56	55	-2.0554341577226
13	57	56	-0.25117935799062
13	58	57	0.94320939132012
13	59	58	1.4790273165563
13	60	59	-2.2
13	61	60	-0.41608276248444
13	62	61	3.1859785843408
13	63	62	-0.65665985760279
13	64	63	0.63162250618916
13	65	64	-2.1176446614554
13	66	65	0.89642110513523
13	67	66	0.6230946329888
13	68	67	-1.9402295508189
13	69	68	2.4356838526437
13	70	69	-2.2
13	71	70	-0.11125656142831
13	72	71	2.4263176077511
13	73	72	-0.50941972271539
13	74	73	-1.8260556858731
13	75	74	1.5896747298539
13	76	75	-2.2
13	77	76	-0.47919788334984
13	78	77	0.62077863805462
13	79	78	1.3464107949985
13	80	79	-1.3253282308578
13	81	80	2.5805533335079
13	82	81	-2.0106935411459
13	83	82	0.55636340763886
13	84	83	1.4370569690363
13	85	84	-2.1190522116376
13	86	85	1.7202576259151
13	87	86	-0.90720607340336
13	88	87	-0.52854004397523
13	89	88	0.86877042194828
13	90	89	0.5422262646025
13	91	90	-0.45183633326087
13	92	91	0.33403831336182
13	93	92	-0.3028840366751
13	94	93	-1.3756476829294
13	95	94	0.11020494310651
13	96	95	-0.26293605426326
13	97	96	0.77256682491861
13	98	97	-1.0044906180119
13	99	98	2.1560334704118
13	100	99	-1.3943031370873
13	101	100	0.45337413006928
13	102	101	-1.0477247220697
13	103	102	-0.61427106987685
13	104	103	1.9786027428927
13	105	104	-1.9066680641845
13	106	105	0.86462223925628
13	107	106	0.48518229648471
13	108	107	0.9685226988513
13	109	108	-0.7555870009819
13	110	109	-1.7133399279555
13	111	110	1.586496890639
13	112	111	0.82615576067474
13	113	112	0.29924401140306
13	114	113	-1.0028948592953
13	115	114	-0.53319611761253
13	116	115	1.3180084796622
13	117	116	-0.28490160137881
13	118	117	0.044261578237638
13	119	118	-0.84144296764862
13	120	119	1.6421615581494
13	121	120	-1.2320459850598
13	122	121	-0.96381841041148
13	123	122	-0.62934863544069
13	124	123	1.0345965645975
13	125	124	-1.3159790827194
13	126	125	2.6614575374406
13	127	126	-1.4242916449439
13	128	127	-1.2669266297016
13	129	128	0.23803291155491
13	130	129	0.81190999376122
13	131	130	1.5473561447579
13	132	131	-0.19510108674876
13	133	132	-1.1329202707857
13	134	133	0.14755645499099
13	135	134	-1.0207730655093
13	136	135	0.27679188479669
13	137	136	-0.39185944222845
13	138	137	0.079818332684226
13	139	138	0.49336241045967
13	140	139	2.313767564483
13	141	140	-1.1426831685239
13	142	141	0.15255455335137
13	143	142	-1.7251250449335
13	144	143	0.81971068365965
13	145	144	0.11982962850016
13	146	145	0.41261148813646
13	147	146	0.10710206069052
13	148	147	1.5099689709023
13	149	148	-0.015868343412876
13	150	149	-2.2
13	151	150	-0.66504282976966
13	152	151	1.6811799457064
13	153	152	0.14656104252208
13	154	153	-0.19193156936672
13	155	154	-0.1368954922897
13	156	155	0.12034241894887
13	157	156	-2.2
13	158	157	-0.88751179800199
13	159	158	2.0158164409222
13	160	159	-2.2
13	161	160	1.8789789377479
13	162	161	1.8259673698991
13	163	162	-1.1803803000569
13	164	163	-1.4349296785455
13	165	164	-0.89244160457696
13	166	165	-0.77861271011646
13	167	166	-1.5743086127557
13	168	167	1.0931406734744
13	169	168	2.1252660619793
13	170	169	-1.4888867241881
13	171	170	2.4873119259719
13	172	171	1.3946641402741
13	173	172	-2.2
13	174	173	-0.091277541490934
13	175	174	2.3922442722281
13	176	175	-1.1675931205771
13	177	176	-0.8883263522177
13	178	177	0.14529635564128
13	179	178	-2.2
13	180	179	-0.74627557978089
13	181	180	1.2074485923008
13	182	181	1.0271955769276
13	183	182	-0.999237818393
13	184	183	3.1261367356637
13	185	184	0.022445977027985
13	186	185	-2.2
13	187	186	-0.98828874676214
13	188	187	1.4159613843076
13	189	188	-1.9566813383635
13	190	189	0.23865703507326
13	191	190	-0.15193712418825
13	192	191	1.3581542325719
13	193	192	-0.22000405406725
13	194	193	0.8963294508867
13	195	194	1.1910845363459
13	196	195	0.66996018219525
13	197	196	-0.63938478755356
13	198	197	1.0937420216524
13	199	198	-2.0767975638858
13	200	199	0.2571387259601
13	201	200	-1.8720015977183
14	11	10	2.7218138191798
14	12	11	1.6380693065939
14	13	12	1.5133099535762
14	14	13	3.3126960564205
14	15	14	4.0734539756184
14	16	15	3.0522300003909
14	17	16	3.6748042353009
14	18	17	11.792265384908
14	19	18	5.9850265700656
14	20	19	0.973
14	21	20	0.973
14	22	21	6.0788875973914
14	23	22	0.973
14	24	23	0.973
14	25	24	0.973
14	26	25	7.4036633011518
14	27	26	0.973
14	28	27	10.59071543903
14	29	28	0.973
14	30	29	0.973
14	31	30	6.9055890175527
14	32	31	0.973
14	33	32	3.3285649769532
14	34	33	0.973
14	35	34	3.2161480031892
14	36	35	5.5819265676134
14	37	36	4.0473785407348
14	38	37	3.6147781111112
14	39	38	0.973
14	40	39	2.8256525831474
14	41	40	0.973
14	42	41	3.2428404233506
14	43	42	0.973
14	44	43	8.0864058345413
14	45	44	0.973
14	46	45	5.816599738094
14	47	46	1.8782535614551
14	48	47	3.4311501556417
14	49	48	0.973
14	50	49	2.2397628396307
14	51	50	8.032895882319
14	52	51	0.973
14	53	52	0.973
14	54	53	2.5580336105613
14	55	54	9.0555543103543
14	56	55	0.973
14	57	56	0.973
14	58	57	4.6551131903653
14	59	58	6.9046545784071
14	60	59	0.973
14	61	60	0.973
14	62	61	13.048222170452
14	63	62	0.973
14	64	63	4.2398262033829
14	65	64	0.973
14	66	65	4.7647281681019
14	67	66	4.0594451228581
14	68	67	0.973
14	69	68	10.374510270988
14	70	69	0.973
14	71	70	1.5181875325175
14	72	71	10.42181063233
14	73	72	0.973
14	74	73	0.973
14	75	74	7.179685922256
14	76	75	0.973
14	77	76	0.973
14	78	77	3.5213643473042
14	79	78	6.0862085398914
14	80	79	0.973
14	81	80	10.805757341396
14	82	81	0.973
14	83	82	3.5985501032143
14	84	83	6.9169769059963
14	85	84	0.973
14	86	85	7.6711559370363
14	87	86	0.973
14	88	87	0.973
14	89	88	4.6923871462074
14	90	89	3.7853447913981
14	91	90	0.973
14	92	91	3.0796848587722
14	93	92	0.973
14	94	93	0.973
14	95	94	2.1621838008542
14	96	95	0.973
14	97	96	4.2112463630538
14	98	97	0.973
14	99	98	9.0756935200435
14	100	99	0.973
14	101	100	3.2947180224834
14	102	101	0.973
14	103	102	0.973
14	104	103	8.1349560535117
14	105	104	0.973
14	106	105	4.3344218948853
14	107	106	3.3417106326091
14	108	107	5.1079345372806
14	109	108	0.973
14	110	109	0.973
14	111	110	6.6832193385088
14	112	111	4.631310079378
14	113	112	2.9873997676444
14	114	113	0.973
14	115	114	0.973
14	116	115	6.2472919715661
14	117	116	0.973
14	118	117	2.0988377797636
14	119	118	0.973
14	120	119	7.574261834547
14	121	120	0.973
14	122	121	0.973
14	123	122	0.973
14	124	123	4.9078117925997
14	125	124	0.973
14	126	125	10.680410725683
14	127	126	0.973
14	128	127	0.973
14	129	128	2.4073312603827
14	130	129	4.1690758300245
14	131	130	6.9994782638196
14	132	131	1.3413313180909
14	133	132	0.973
14	134	133	2.3088850635149
14	135	134	0.973
14	136	135	2.5763265163204
14	137	136	0.973
14	138	137	1.996945310843
14	139	138	3.2149952578225
14	140	139	9.8594120717409
14	141	140	0.973
14	142	141	2.4221128358669
14	143	142	0.973
14	144	143	4.2550298404344
14	145	144	2.2239729990879
14	146	145	3.1666757793335
14	147	146	2.2474248649033
14	148	147	7.2620742292233
14	149	148	2.011159335854
14	150	149	0.973
14	151	150	0.973
14	152	151	7.2449064912397
14	153	152	2.4283618246738
14	154	153	1.3402196615503
14	155	154	1.5045836041631
14	156	155	2.3187707452457
14	157	156	0.973
14	158	157	0.973
14	159	158	7.6447958663405
14	160	159	0.973
14	161	160	7.0777804403903
14	162	161	7.9005697538885
14	163	162	0.973
14	164	163	0.973
14	165	164	0.973
14	166	165	0.973
14	167	166	0.973
14	168	167	3.8755577368744
14	169	168	7.2815960750882
14	170	169	0.973
14	171	170	8.9063498550667
14	172	171	6.394843144157
14	173	172	0.973
14	174	173	1.5160382786301
14	175	174	9.6357264891584
14	176	175	0.973
14	177	176	0.973
14	178	177	2.194532352193
14	179	178	0.973
14	180	179	0.973
14	181	180	4.4662598764979
14	182	181	4.3803628541491
14	183	182	0.973
14	184	183	11.567312568094
14	185	184	1.9929758245019
14	186	185	0.973
14	187	186	0.973
14	188	187	5.5398188925453
14	189	188	0.973
14	190	189	2.1724046700944
14	191	190	1.2882796994651
14	192	191	5.1770802194415
14	193	192	0.973
14	194	193	4.204742120548
14	195	194	5.4470677948104
14	196	195	4.0592869706145
14	197	196	0.973
14	198	197	5.5590174968579
14	199	198	0.973
14	200	199	2.549410609934
14	201	200	0.973
15	13	12	139.74095531587
15	14	13	136.84088485026
15	15	14	134.03611645078
15	16	15	129.14930900551
15	17	16	123.62904601746
15	18	17	116.10835766753
15	19	18	106.78255120938
15	20	19	97.020400663854
15	21	20	84.119135141965
15	22	21	71.205052083411
15	23	22	58.848576049465
15	24	23	48.140641064893
15	25	24	39.545870618273
15	26	25	34.378990777669
15	27	26	29.398907077524
15	28	27	24.236027197105
15	29	28	29.010527843129
15	30	29	36.150816485669
15	31	30	42.167750072502
15	32	31	49.505951409788
15	33	32	60.426180833022
15	34	33	71.221425036305
15	35	34	83.10935584734
15	36	35	94.179178200089
15	37	36	106.96524786581
15	38	37	119.54433264034
15	39	38	130.07957673416
15	40	39	141.38202867314
15	41	40	152.96886051396
15	42	41	157.93832140533
15	43	42	163.73638689109
15	44	43	169.09110793404
15	45	44	172.77741580116
15	46	45	164.51746585021
15	47	46	156.66285667924
15	48	47	149.89756818441
15	49	48	139.68383699086
15	50	49	128.15058218495
15	51	50	117.11149675178
15	52	51	106.49935152411
15	53	52	92.878971360395
15	54	53	79.883377920055
15	55	54	69.373088235491
15	56	55	56.476566071332
15	57	56	45.607307217719
15	58	57	38.770116254838
15	59	58	34.279363437514
15	60	59	29.505722975361
15	61	60	24.793761728917
15	62	61	28.083578047226
15	63	62	34.353053847982
15	64	63	41.289589389344
15	65	64	47.504000049438
15	66	65	57.734541460443
15	67	66	68.410668143065
15	68	67	79.870902216056
15	69	68	93.081382488611
15	70	69	104.11320744202
15	71	70	116.07856896399
15	72	71	126.49505223926
15	73	72	137.31466787056
15	74	73	149.50322237408
15	75	74	155.96589561636
15	76	75	161.78218963996
15	77	76	167.46982737038
15	78	77	172.20022716403
15	79	78	168.52521767646
15	80	79	160.46942554543
15	81	80	153.72786088074
15	82	81	145.49812053552
15	83	82	131.7557266611
15	84	83	119.97248742668
15	85	84	108.03195552818
15	86	85	94.468405582585
15	87	86	83.319338004641
15	88	87	72.98834484107
15	89	88	61.392856422941
15	90	89	48.737530796655
15	91	90	39.460829627551
15	92	91	34.085279274839
15	93	92	28.579955239117
15	94	93	23.95794102944
15	95	94	29.236989694246
15	96	95	35.544497847507
15	97	96	41.903324724685
15	98	97	49.314685994338
15	99	98	63.017973600666
15	100	99	74.708398968084
15	101	100	86.791775998361
15	102	101	98.992379040859
15	103	102	111.04044734249
15	104	103	121.1370527743
15	105	104	131.13801204778
15	106	105	140.67237510326
15	107	106	152.67396414954
15	108	107	158.66299302132
15	109	108	163.73136019324
15	110	109	169.68837116622
15	111	110	172.66219482735
15	112	111	166.15583148964
15	113	112	158.13688617905
15	114	113	149.86781162403
15	115	114	140.23831287419
15	116	115	126.94422216404
15	117	116	115.83866023527
15	118	117	102.32027799424
15	119	118	90.992856205184
15	120	119	79.360253858436
15	121	120	67.447037793302
15	122	121	55.421586377976
15	123	122	43.752462174219
15	124	123	36.580810100508
15	125	124	31.015666120836
15	126	125	26.129674402858
15	127	126	25.720049866671
15	128	127	31.222679470197
15	129	128	38.114771460417
15	130	129	43.944160822065
15	131	130	53.553667556483
15	132	131	65.931650128801
15	133	132	79.020494213045
15	134	133	92.677996143706
15	135	134	105.32893832825
15	136	135	116.49340380615
15	137	136	128.95968440814
15	138	137	139.458419537
15	139	138	149.77755623916
15	140	139	156.66631834616
15	141	140	161.74138238116
15	142	141	166.36776196567
15	143	142	171.45314070466
15	144	143	169.78541844097
15	145	144	162.64131370979
15	146	145	155.8852542028
15	147	146	148.27126487954
15	148	147	138.3571079289
15	149	148	124.54916243438
15	150	149	110.59488561139
15	151	150	98.065882782127
15	152	151	85.050242094085
15	153	152	74.488858792992
15	154	153	63.42090947714
15	155	154	51.380175961751
15	156	155	41.202087610342
15	157	156	36.154892154929
15	158	157	31.162197697034
15	159	158	26.073148399795
15	160	159	26.630975809222
15	161	160	33.202227368006
15	162	161	39.66366206432
15	163	162	45.191600878592
15	164	163	54.780988666133
15	165	164	67.540857052208
15	166	165	78.122070119133
15	167	166	88.883741108532
15	168	167	97.466756778782
15	169	168	106.21406932317
15	170	169	117.10867414211
15	171	170	125.88664971894
15	172	171	137.6140029322
15	173	172	147.37381067235
15	174	173	154.46151071639
15	175	174	158.84512645078
15	176	175	163.74467878964
15	177	176	168.76109023729
15	178	177	173.57442656054
15	179	178	167.38368846589
15	180	179	161.81914929278
15	181	180	155.33929926584
15	182	181	149.89187986385
15	183	182	140.27849292491
15	184	183	130.09018329261
15	185	184	118.92826367372
15	186	185	107.90311526717
15	187	186	98.330959456629
15	188	187	86.878681621488
[...]
20	145	144	33.601307381143
20	146	145	29.329562814898
20	147	146	25.791039930705
20	148	147	24.904949476414
20	149	148	29.694008012034
20	150	149	34.982658167287
20	151	150	40.51940717987
20	152	151	46.029198509571
20	153	152	54.092440675503
20	154	153	64.144588144591
20	155	154	76.060805240858
20	156	155	85.798367017977
20	157	156	96.976133719212
20	158	157	108.64273083154
20	159	158	119.37991856622
20	160	159	128.8993906095
20	161	160	139.36876354603
20	162	161	148.42808877764
20	163	162	155.05165124188
20	164	163	158.89130059875
20	165	164	163.93939981244
20	166	165	168.27981567302
20	167	166	173.08159242972
20	168	167	169.19038441045
20	169	168	162.64770704711
20	170	169	155.9421555126
20	171	170	149.37242945574
20	172	171	140.99917470331
20	173	172	130.28708266817
20	174	173	120.80101884939
20	175	174	109.23282412771
20	176	175	99.85558985801
20	177	176	88.048164626569
20	178	177	79.00317551652
20	179	178	70.550650012763
20	180	179	62.417690665906
20	181	180	52.164138058542
20	182	181	42.368213190412
20	183	182	37.785323567929
20	184	183	32.959168814568
20	185	184	28.042538962578
20	186	185	23.525375512677
20	187	186	27.587601975589
20	188	187	32.831059903863
20	189	188	39.031687312887
20	190	189	45.022943890347
20	191	190	53.957047727906
20	192	191	64.175242138807
20	193	192	75.367836006724
20	194	193	87.263230519894
20	195	194	98.766210690783
20	196	195	109.19785544282
20	197	196	120.03414365975
20	198	197	129.00733792513
20	199	198	139.44527094464
20	200	199	148.97049331963
20	201	200	155.99051222364
21	16	15	28.178983050847
21	17	16	28.058656482775
21	18	17	27.73356986769
21	19	18	27.400211463994
21	20	19	26.856069707855
21	21	20	26.064768965416
21	22	21	25.041630481229
21	23	22	23.953613601738
21	24	23	24.980736542528
21	25	24	29.386843236147
21	26	25	33.924154705795
21	27	26	38.332931980702
21	28	27	43.691989734572
21	29	28	52.628178030333
21	30	29	62.300145007787
21	31	30	70.886073032735
21	32	31	79.101369512388
21	33	32	89.698900121009
21	34	33	100.14234631351
21	35	34	110.43806551543
21	36	35	118.84271891959
21	37	36	125.39973142692
21	38	37	126.78508558078
21	39	38	128.34756206431
21	40	39	129.61418790668
21	41	40	131.29359027622
21	42	41	132.66667775214
21	43	42	131.55263010305
21	44	43	126.4557205504
21	45	44	121.18745226348
21	46	45	115.8338024784
21	47	46	110.86784066626
21	48	47	100.53068399646
21	49	48	90.489240218659
21	50	49	80.592237838763
21	51	50	71.246967388356
21	52	51	62.253489267748
21	53	52	54.474913440431
21	54	53	44.997538950976
21	55	54	35.8005144068
21	56	55	28.470151590912
21	57	56	27.466555463959
21	58	57	26.4689853392
21	59	58	25.44698085858
21	60	59	24.45867261047
21	61	60	23.530283094591
21	62	61	26.158738589225
21	63	62	30.529056789876
21	64	63	34.306898646061
21	65	64	37.82582951678
21	66	65	41.857435071064
21	67	66	49.990081858969
21	68	67	58.114778304866
21	69	68	68.974796504253
21	70	69	77.819958098092
21	71	70	87.823649611247
21	72	71	96.907379997571
21	73	72	105.39257365169
21	74	73	113.62562650642
21	75	74	121.28828144867
21	76	75	126.07131473038
21	77	76	127.51686451155
21	78	77	128.7775330793
21	79	78	130.25634252094
21	80	79	131.94871187815
21	81	80	133.34445990891
21	82	81	129.52267258374
21	83	82	124.2503251936
21	84	83	119.80887313444
21	85	84	115.81176379284
21	86	85	111.18697625151
21	87	86	100.45592039878
21	88	87	90.590824940541
21	89	88	82.670372530364
21	90	89	73.99702126738
21	91	90	65.317096070219
21	92	91	57.49939137589
21	93	92	47.840359333002
21	94	93	39.937073280006
21	95	94	30.257695119254
21	96	95	27.826612611638
21	97	96	26.935112106599
21	98	97	25.836401368914
21	99	98	24.737985151491
21	100	99	23.838438990565
21	101	100	25.565331894791
21	102	101	29.946939460417
21	103	102	34.016282427156
21	104	103	38.694446045889
21	105	104	42.745915858007
21	106	105	51.683953478152
21	107	106	62.420857835349
21	108	107	71.370461944272
21	109	108	80.120992383848
21	110	109	89.481674246836
21	111	110	97.570215706444
21	112	111	106.22075876121
21	113	112	115.89352794626
21	114	113	125.20547321664
21	115	114	126.67953347475
21	116	115	128.1381478198
21	117	116	129.38039486569
21	118	117	130.76268949102
21	119	118	132.41292895998
21	120	119	131.20074858144
21	121	120	125.98103414759
21	122	121	120.6199600999
21	123	122	115.95029517295
21	124	123	111.94490689282
21	125	124	103.84463552727
21	126	125	93.635523688174
21	127	126	83.164629836446
21	128	127	74.38427899441
21	129	128	64.004698852432
21	130	129	55.514318227211
21	131	130	46.691827345419
21	132	131	37.297730229159
21	133	132	28.72966910236
21	134	133	27.640931361246
21	135	134	26.76073438274
21	136	135	25.683657563616
21	137	136	24.714668890839
21	138	137	23.77936392218
21	139	138	25.274911629574
21	140	139	29.937714816512
21	141	140	33.745494179129
21	142	141	37.352476550342
21	143	142	42.056032168941
21	144	143	50.741079418196
21	145	144	58.932989720765
21	146	145	68.676969129483
21	147	146	76.748447558532
21	148	147	85.72726570978
21	149	148	93.789209041255
21	150	149	102.69216930673
21	151	150	112.01278137443
21	152	151	121.28801264127
21	153	152	125.85317574296
21	154	153	127.26648901724
21	155	154	128.9418870208
21	156	155	130.31097013075
21	157	156	131.88254337957
21	158	157	132.90363458423
21	159	158	127.53504071689
21	160	159	122.77530469525
21	161	160	117.54061822699
21	162	161	113.01095561118
21	163	162	105.50815572365
21	164	163	97.562724525827
21	165	164	87.116633944534
21	166	165	78.134960779879
21	167	166	68.198588131815
21	168	167	60.042539620396
21	169	168	51.379395550526
21	170	169	42.500590164703
21	171	170	33.801630981868
21	172	171	28.293189658475
21	173	172	27.320869803815
21	174	173	26.459834614488
21	175	174	25.40980765677
21	176	175	24.558650755549
21	177	176	23.486909218296
21	178	177	26.370387304633
21	179	178	29.935346352531
21	180	179	33.365524350441
21	181	180	37.690089254086
21	182	181	41.821643897209
21	183	182	49.38912141648
21	184	183	60.39772734101
21	185	184	71.612709720021
21	186	185	81.916497074128
21	187	186	90.243266561623
21	188	187	99.070149834045
21	189	188	109.50834064323
21	190	189	119.59407474995
21	191	190	125.83413974586
21	192	191	127.27079891192
21	193	192	128.84445683285
21	194	193	130.51692721988
21	195	194	132.13422487883
21	196	195	132.62607227859
21	197	196	127.20792817012
21	198	197	122.72133103743
21	199	198	117.50236452768
21	200	199	112.73975334018
21	201	200	103.56535974372
22	17	16	1.3311126593035
22	18	17	3.5962706793798
22	19	18	3.6877773408778
22	20	19	6.0195681772893
22	21	20	8.7537644632393
22	22	21	11.31846948131
22	23	22	12.036186729372
22	24	23	11.244017468579
22	25	24	11.33703465357
22	26	25	11.674628179102
22	27	26	11.34390613325
22	28	27	11.95732674799
22	29	28	9.7573267479896
22	30	29	10.560715483083
22	31	30	9.3748813701564
22	32	31	8.970192819415
22	33	32	11.941672388628
22	34	33	12.149541095063
22	35	34	11.97768066607
22	36	35	9.7776806660698
22	37	36	9.7256765309026
22	38	37	9.9498235377719
22	39	38	11.2219429594
22	40	39	9.097098806687
22	41	40	12.061722397386
22	42	41	9.8617223973855
22	43	42	9.266802796326
22	44	43	11.398161993176
22	45	44	11.7813696197
22	46	45	11.972307311884
22	47	46	10.880915616802
22	48	47	11.489540000377
22	49	48	11.152520601452
22	50	49	10.992096891324
22	51	50	10.37931631452
22	52	51	10.379971761536
22	53	52	9.7467782461786
22	54	53	11.875421613851
22	55	54	11.524135104777
22	56	55	11.391869574366
22	57	56	11.102282154421
22	58	57	11.035619505146
22	59	58	11.305924566859
22	60	59	10.933159994707
22	61	60	10.270309019415
22	62	61	9.5919556519253
22	63	62	11.24494986916
22	64	63	9.7204918122621
22	65	64	9.0543066700225
22	66	65	10.373432841432
22	67	66	9.7655008511388
22	68	67	8.8712676285537
22	69	68	11.857935682801
22	70	69	9.6579356828009
22	71	70	11.159230520879
22	72	71	10.56769514496
22	73	72	9.8713783841118
22	74	73	9.5780465712774
22	75	74	8.9144655319865
22	76	75	11.704007461481
22	77	76	10.382157658157
22	78	77	9.0543127573797
22	79	78	10.621033581486
22	80	79	12.154853268457
22	81	80	10.081002236158
22	82	81	8.8819116659466
22	83	82	11.790491672745
22	84	83	9.9323697099931
22	85	84	8.938691045903
22	86	85	10.33082119613
22	87	86	12.07338567758
22	88	87	10.956659497158
22	89	88	8.7968434253012
22	90	89	9.6330498665807
22	91	90	9.5955296085918
22	92	91	9.7958078369735
22	93	92	12.103043729952
22	94	93	9.9030437299519
22	95	94	12.128537998232
22	96	95	11.565708250204
22	97	96	9.8622243369933
22	98	97	12.154487535637
22	99	98	12.15122940524
22	100	99	9.9512294052405
22	101	100	11.474078377989
22	102	101	11.273997718166
22	103	102	10.470532249706
22	104	103	12.037044662913
22	105	104	9.9901259502399
22	106	105	9.7633533227959
22	107	106	11.723509018356
22	108	107	9.7719753283778
22	109	108	9.5546089553278
22	110	109	10.575644265325
22	111	110	9.4099270538896
22	112	111	10.063740110421
22	113	112	11.25296234123
22	114	113	11.761470545363
22	115	114	10.586924225372
22	116	115	10.475989336428
22	117	116	8.922006594879
22	118	117	9.9278495400682
22	119	118	11.852270024643
22	120	119	11.876173809916
22	121	120	11.672789179534
22	122	121	11.988910107571
22	123	122	10.442719601258
22	124	123	8.9572051438041
22	125	124	9.9931244666692
22	126	125	11.338740984607
22	127	126	11.629488944123
22	128	127	9.751888853894
22	129	128	11.670108352253
22	130	129	10.638690040028
22	131	130	11.054833701277
22	132	131	11.771072680643
22	133	132	10.970343324403
22	134	133	11.470829337882
22	135	134	9.7371790747162
22	136	135	11.915162311565
22	137	136	10.71943719259
22	138	137	10.346811215789
22	139	138	10.073301041546
22	140	139	11.997521846136
22	141	140	9.7975218461364
22	142	141	9.2808656214507
22	143	142	12.102378982399
22	144	143	10.074511075323
22	145	144	8.9446577071681
22	146	145	10.639345073072
22	147	146	8.8131594551265
22	148	147	9.8903412962569
22	149	148	9.3789837192049
22	150	149	10.357393490547
22	151	150	10.843275032053
22	152	151	10.790480590938
22	153	152	10.137612907496
22	154	153	10.150630178908
22	155	154	12.032962433924
22	156	155	9.8329624339243
22	157	156	11.287277306593
22	158	157	11.877338471287
22	159	158	12.005726596387
22	160	159	10.644144585869
22	161	160	11.706270973129
22	162	161	10.129633994121
22	163	162	10.529530100571
22	164	163	8.8245860935891
22	165	164	11.601941213874
22	166	165	9.9754873124653
22	167	166	11.03582344465
22	168	167	9.764675268601
22	169	168	10.855167583144
22	170	169	11.125397387357
22	171	170	10.900044945232
22	172	171	10.844852783764
22	173	172	10.756288392167
22	174	173	9.5252017819326
22	175	174	11.615923219757
22	176	175	9.4159232197566
22	177	176	11.856140755862
22	178	177	9.6567101567521
22	179	178	9.1727384457368
22	180	179	8.8259430681824
22	181	180	11.127225367749
22	182	181	10.630604617461
22	183	182	9.2014103666184
22	184	183	12.02017700281
22	185	184	12.245517207473
22	186	185	11.250593276276
22	187	186	9.5011621736226
22	188	187	10.268888169946
22	189	188	12.143427165388
22	190	189	11.733391329344
22	191	190	11.971561758942
22	192	191	10.318303912692
22	193	192	11.302249737713
22	194	193	12.011935848208
22	195	194	11.615676951525
22	196	195	10.690433280124
22	197	196	12.116535248049
22	198	197	10.033327134489
22	199	198	11.671116605215
22	200	199	10.650574287214
22	201	200	12.080808113609
23	18	17	2.2651580200763
23	19	18	0.091506661497988
23	20	19	2.3317908364115
23	21	20	2.73419628595
23	22	21	2.5647050180705
23	23	22	0.71771724806201
23	24	23	-0.79216926079243
23	25	24	0.093017184990458
23	26	25	0.3375935255317
23	27	26	-0.33072204585187
23	28	27	0.61342061473988
23	29	28	-2.2
23	30	29	0.80338873509318
23	31	30	-1.1858341129264
23	32	31	-0.40468855074141
23	33	32	2.9714795692125
23	34	33	0.20786870643497
23	35	34	-0.17186042899266
23	36	35	-2.2
23	37	36	-0.052004135167225
23	38	37	0.22414700686932
23	39	38	1.2721194216283
23	40	39	-2.1248441527132
23	41	40	2.9646235906985
23	42	41	-2.2
23	43	42	-0.59491960105952
23	44	43	2.1313591968501
23	45	44	0.38320762652438
23	46	45	0.19093769218307
23	47	46	-1.0913916950813
23	48	47	0.60862438357435
23	49	48	-0.33701939892489
23	50	49	-0.16042371012736
23	51	50	-0.61278057680465
23	52	51	0.00065544701647013
23	53	52	-0.63319351535756
23	54	53	2.1286433676723
23	55	54	-0.35128650907427
23	56	55	-0.13226553041022
23	57	56	-0.28958741994575
23	58	57	-0.066662649274804
23	59	58	0.27030506171286
23	60	59	-0.37276457215194
23	61	60	-0.6628509752918
23	62	61	-0.67835336748976
23	63	62	1.6529942172347
23	64	63	-1.5244580568979
23	65	64	-0.66618514223956
23	66	65	1.3191261714092
23	67	66	-0.60793199029285
23	68	67	-0.89423322258517
23	69	68	2.9866680542473
23	70	69	-2.2
23	71	70	1.5012948380783
23	72	71	-0.59153537591919
23	73	72	-0.69631676084828
23	74	73	-0.29333181283437
23	75	74	-0.66358103929088
23	76	75	2.7895419294946
23	77	76	-1.3218498033239
23	78	77	-1.3278449007776
23	79	78	1.5667208241066
23	80	79	1.5338196869707
23	81	80	-2.073851032299
23	82	81	-1.1990905702114
23	83	82	2.9085800067987
23	84	83	-1.8581219627522
23	85	84	-0.99367866409011
23	86	85	1.3921301502269
23	87	86	1.7425644814502
23	88	87	-1.1167261804221
23	89	88	-2.1598160718568
23	90	89	0.8362064412795
23	91	90	-0.037520257988945
23	92	91	0.20027822838165
23	93	92	2.3072358929785
23	94	93	-2.2
23	95	94	2.2254942682805
23	96	95	-0.56282974802889
23	97	96	-1.7034839132102
23	98	97	2.2922631986439
23	99	98	-0.0032581303967163
23	100	99	-2.2
23	101	100	1.522848972748
23	102	101	-0.20008065982256
23	103	102	-0.80346546845976
23	104	103	1.5665124132065
23	105	104	-2.0469187126728
23	106	105	-0.22677262744401
23	107	106	1.9601556955604
23	108	107	-1.9515336899785
23	109	108	-0.21736637305003
23	110	109	1.0210353099974
23	111	110	-1.1657172114355
23	112	111	0.65381305653136
23	113	112	1.1892222308088
23	114	113	0.50850820413325
23	115	114	-1.1745463199914
23	116	115	-0.11093488894403
23	117	116	-1.5539827415487
23	118	117	1.0058429451892
23	119	118	1.9244204845745
23	120	119	0.023903785273433
23	121	120	-0.20338463038206
23	122	121	0.31612092803698
23	123	122	-1.546190506313
23	124	123	-1.485514457454
23	125	124	1.0359193228651
23	126	125	1.3456165179377
23	127	126	0.29074795951601
23	128	127	-1.877600090229
23	129	128	1.9182194983587
23	130	129	-1.0314183122246
23	131	130	0.4161436612485
23	132	131	0.71623897936661
23	133	132	-0.80072935624048
23	134	133	0.50048601347953
23	135	134	-1.7336502631661
23	136	135	2.1779832368484
23	137	136	-1.1957251189742
23	138	137	-0.37262597680092
23	139	138	-0.27351017424371
23	140	139	1.9242208045907
23	141	140	-2.2
23	142	141	-0.51665622468572
23	143	142	2.8215133609483
23	144	143	-2.0278679070761
23	145	144	-1.1298533681547
23	146	145	1.6946873659035
23	147	146	-1.8261856179452
23	148	147	1.0771818411304
23	149	148	-0.51135757705197
23	150	149	0.97840977134183
23	151	150	0.48588154150639
23	152	151	-0.052794441115111
23	153	152	-0.65286768344231
23	154	153	0.013017271412537
23	155	154	1.8823322550161
23	156	155	-2.2
23	157	156	1.4543148726691
23	158	157	0.59006116469391
23	159	158	0.12838812510017
23	160	159	-1.3615820105188
23	161	160	1.0621263872599
23	162	161	-1.5766369790072
23	163	162	0.39989610644989
23	164	163	-1.7049440069823
23	165	164	2.7773551202845
23	166	165	-1.6264539014082
23	167	166	1.0603361321846
23	168	167	-1.2711481760489
23	169	168	1.0904923145426
23	170	169	0.27022980421316
23	171	170	-0.22535244212486
23	172	171	-0.055192161467858
23	173	172	-0.088564391597174
23	174	173	-1.2310866102343
23	175	174	2.090721437824
23	176	175	-2.2
23	177	176	2.4402175361058
23	178	177	-2.1994305991102
23	179	178	-0.48397171101533
23	180	179	-0.34679537755437
23	181	180	2.3012822995661
23	182	181	-0.49662075028755
23	183	182	-1.4291942508426
23	184	183	2.8187666361919
23	185	184	0.22534020466264
23	186	185	-0.99492393119726
23	187	186	-1.749431102653
23	188	187	0.76772599632386
23	189	188	1.874538995442
23	190	189	-0.4100358360447
23	191	190	0.23817042959854
23	192	191	-1.6532578462502
23	193	192	0.98394582502078
23	194	193	0.70968611049466
23	195	194	-0.39625889668241
23	196	195	-0.9252436714014
23	197	196	1.4261019679252
23	198	197	-2.0832081135595
23	199	198	1.6377894707257
23	200	199	-1.0205423180014
23	201	200	1.4302338263951
24	18	17	3.2509959964975
24	19	18	1.3738583690443
24	20	19	4.8032997879863
24	21	20	7.3624651183048
24	22	21	8.785827885268
24	23	22	3.9336023347682
24	24	23	0.973
24	25	24	2.0456505380838
24	26	25	2.7700270391404
24	27	26	0.973
24	28	27	3.6124590500535
24	29	28	0.973
24	30	29	3.7729856083301
24	31	30	0.973
24	32	31	0.973
24	33	32	10.395129518637
24	34	33	2.4704148466149
24	35	34	1.3504490325063
24	36	35	0.973
24	37	36	1.5422577843479
24	38	37	2.2184585423172
24	39	38	5.2223285569434
24	40	39	0.973
24	41	40	10.471754571859
24	42	41	0.973
24	43	42	0.973
24	44	43	7.6513966730284
24	45	44	2.9174422184357
24	46	45	2.3969897064624
24	47	46	0.973
24	48	47	3.4896373368029
24	49	48	0.973
24	50	49	1.3379725098617
24	51	50	0.973
24	52	51	1.7156839699094
24	53	52	0.973
24	54	53	7.9297083710199
24	55	54	0.973
24	56	55	1.4329873886744
24	57	56	0.973
24	58	57	1.5892179585786
24	59	58	2.5254084976329
24	60	59	0.973
24	61	60	0.973
24	62	61	0.973
24	63	62	6.2634797175598
24	64	63	0.973
24	65	64	0.973
24	66	65	5.0113456425003
24	67	66	0.973
24	68	67	0.973
24	69	68	10.371242883352
24	70	69	0.973
24	71	70	5.8142389352737
24	72	71	0.973
24	73	72	0.973
24	74	73	0.973
24	75	74	0.973
24	76	75	9.691074132379
24	77	76	0.973
24	78	77	0.973
24	79	78	5.7433265218905
24	80	79	6.3552888804551
24	81	80	0.973
24	82	81	0.973
24	83	82	10.094942949963
24	84	83	0.973
24	85	84	0.973
24	86	85	5.1762378993217
24	87	86	6.9253128138603
24	88	87	0.973
24	89	88	0.973
24	90	89	3.598583901265
24	91	90	1.5677386984821
24	92	91	2.1421992775792
24	93	92	8.587452217564
24	94	93	0.973
24	95	94	8.3649661961862
24	96	95	0.973
24	97	96	0.973
24	98	97	8.5767776923436
24	99	98	1.852376343412
24	100	99	0.973
24	101	100	6.0141208698229
24	102	101	1.2426069712618
24	103	102	0.973
24	104	103	6.3961200258334
24	105	104	0.973
24	106	105	0.973
24	107	106	7.3625475673721
24	108	107	0.973
24	109	108	0.973
24	110	109	4.3317807290175
24	111	110	0.973
24	112	111	3.2753643866624
24	113	112	5.0096062704894
24	114	113	3.2690466782609
24	115	114	0.973
24	116	115	1.4414910695338
24	117	116	0.973
24	118	117	4.0859048187907
24	119	118	7.3324699770363
24	120	119	1.9060629377071
24	121	120	1.2478707758646
24	122	121	2.7609104041088
24	123	122	0.973
24	124	123	0.973
24	125	124	4.1791058351595
24	126	125	5.4687306449758
24	127	126	2.6311841495778
24	128	127	0.973
24	129	128	7.2147750131402
24	130	129	0.973
24	131	130	2.8767855680528
24	132	131	3.8603516352562
24	133	132	0.973
24	134	133	3.1863616075982
24	135	134	0.973
24	136	135	8.0952530699344
24	137	136	0.973
24	138	137	0.973
24	139	138	0.973
24	140	139	7.411989636266
24	141	140	0.973
24	142	141	0.973
24	143	142	10.087002914244
24	144	143	0.973
24	145	144	0.973
24	146	145	6.0798140988871
24	147	146	0.973
24	148	147	4.2440238509188
24	149	148	0.973
24	150	149	4.154522203336
24	151	150	3.0205747309649
24	152	151	1.6093038700584
24	153	152	0.973
24	154	153	1.7281271659428
24	155	154	7.3100779116585
24	156	155	0.973
24	157	156	5.7434182649045
24	158	157	3.5267620799294
24	159	158	2.2204912473722
24	160	159	0.973
24	161	160	4.8193867283615
24	162	161	0.973
24	163	162	2.7405725045951
24	164	163	0.973
24	165	164	9.5796171827156
24	166	165	0.973
24	167	166	4.5866350609505
24	168	167	0.973
24	169	168	4.6046484110715
24	170	169	2.4984443589074
24	171	170	0.973
24	172	171	1.606731629002
24	173	172	1.5142644425618
24	174	173	0.973
24	175	174	7.6679845633799
24	176	175	0.973
24	177	176	8.8084049797594
24	178	177	0.973
24	179	178	0.973
24	180	179	0.973
24	181	180	7.9453092058294
24	182	181	0.973
24	183	182	0.973
24	184	183	10.015870424305
24	185	184	2.5353714805766
24	186	185	0.973
24	187	186	0.973
24	188	187	3.6053739585176
24	189	188	7.347184151553
24	190	189	0.973
24	191	190	2.5331631809178
24	192	191	0.973
24	193	192	4.4687065124881
24	194	193	3.9040169674869
24	195	194	0.973
24	196	195	0.973
24	197	196	6.0231672834397
24	198	197	0.973
24	199	198	6.4265513117933
24	200	199	0.973
24	201	200	6.0197451969198

